
=================
  PFLOTRAN v5.0
=================

"grid_structured_type" set to default value.
"CHEMISTRY,MICROBIAL_REACTION,RATE_CONSTANT units" set to default value.
"CHEMISTRY,MICROBIAL_REACTION,RATE_CONSTANT units" set to default value.
"CHEMISTRY,MICROBIAL_REACTION,RATE_CONSTANT units" set to default value.
"CHEMISTRY,MICROBIAL_REACTION,RATE_CONSTANT units" set to default value.
"CHEMISTRY,MICROBIAL_REACTION,RATE_CONSTANT units" set to default value.
"CHEMISTRY,MICROBIAL_REACTION,RATE_CONSTANT units" set to default value.
"CHEMISTRY,MICROBIAL_REACTION,RATE_CONSTANT units" set to default value.
"CHEMISTRY,MICROBIAL_REACTION,RATE_CONSTANT units" set to default value.
"CHEMISTRY,MICROBIAL_REACTION,RATE_CONSTANT units" set to default value.
"CHEMISTRY,MICROBIAL_REACTION,RATE_CONSTANT units" set to default value.
pflotran card:: REFERENCE_LIQUID_DENSITY
"Reference Density units" set to default value.
pflotran card:: NUMERICAL_METHODS
pflotran card:: CHEMISTRY
"SOMPREFACTOR RATE UNITS" set to default value.
pflotran card:: CONSTRAINT
oc_rich
Constraint Species: DOM1
Constraint Species: O2(aq)
Constraint Species: HCO3-
Constraint Species: H+
Constraint Species: Acetate-
Constraint Species: H2(aq)
Constraint Species: Tracer
Constraint Species: Fe++
Constraint Species: Fe+++
Constraint Species: CH4(aq)
Constraint Minerals: SOM
"SOM SPECIFIC SURFACE_AREA UNITS" set to default value.
Constraint Minerals: Fe(OH)3
"Fe(OH)3 SPECIFIC SURFACE_AREA UNITS" set to default value.
pflotran card:: CONSTRAINT
oc_poor
Constraint Species: DOM1
Constraint Species: O2(aq)
Constraint Species: HCO3-
Constraint Species: H+
Constraint Species: Acetate-
Constraint Species: H2(aq)
Constraint Species: Tracer
Constraint Species: Fe++
Constraint Species: Fe+++
Constraint Species: CH4(aq)
Constraint Minerals: SOM
"SOM SPECIFIC SURFACE_AREA UNITS" set to default value.
Constraint Minerals: Fe(OH)3
"Fe(OH)3 SPECIFIC SURFACE_AREA UNITS" set to default value.
pflotran card:: GRID
pflotran card:: FLUID_PROPERTY
"FLUID_PROPERTY,diffusion_coefficient units" set to default value.
pflotran card:: MATERIAL_PROPERTY
  Name :: peat
pflotran card:: OUTPUT
"OUTPUT,FORMAT,HDF5,# FILES" set to default value.
pflotran card:: TIME
pflotran card:: REGION
all
pflotran card:: REGION
west
pflotran card:: REGION
east
pflotran card:: TRANSPORT_CONDITION
initial
pflotran card:: INITIAL_CONDITION
"Initial Condition name" set to default value.
pflotran card:: BOUNDARY_CONDITION
pflotran card:: STRATA
pflotran card:: END_SUBSURFACE

 ! ************************************************************************** !

 Initial Basis

 Primary Species:
  DOM1   (redox species)
    Charge:   0.00
    Molar Mass:  180.1566 [g/mol]
    Debye-Huckel a0:    3.0000 [Angstrom]

  O2(aq)   (redox species)
    Charge:   0.00
    Molar Mass:   31.9988 [g/mol]
    Debye-Huckel a0:    3.0000 [Angstrom]

  HCO3-   (redox species)
    Charge:  -1.00
    Molar Mass:   61.0171 [g/mol]
    Debye-Huckel a0:    4.0000 [Angstrom]

  H+   (redox species)
    Charge:   1.00
    Molar Mass:    1.0079 [g/mol]
    Debye-Huckel a0:    9.0000 [Angstrom]

  Acetate-   (redox species)
    Charge:  -1.00
    Molar Mass:   59.0446 [g/mol]
    Debye-Huckel a0:    4.5000 [Angstrom]
    Equilibrium Aqueous Reaction: 
        -1.0000  Acetate-                        
        -1.0000  H+                              
         1.0000  Acetic_acid(aq)                 
      logK:     4.7812     4.7572     4.8080     4.9438     5.1953     5.5241     5.9420     6.5094

  H2(aq)   (redox species)
    Charge:   0.00
    Molar Mass:    2.0159 [g/mol]
    Debye-Huckel a0:    3.0000 [Angstrom]
    Equilibrium Aqueous Reaction: 
        -1.0000  H2(aq)                          
        -0.5000  O2(g)                           
         1.0000  H2O                             
      logK:    49.1500    44.6575    39.4400    34.6224    29.8242    25.9892    22.8409    20.1881

  Tracer   (redox species)
    Charge:   0.00
    Molar Mass:    0.0000 [g/mol]
    Debye-Huckel a0:    0.0000 [Angstrom]

  Fe++   (redox species)
    Charge:   2.00
    Molar Mass:   55.8470 [g/mol]
    Debye-Huckel a0:    6.0000 [Angstrom]

  Fe+++   (redox species)
    Charge:   3.00
    Molar Mass:   55.8470 [g/mol]
    Debye-Huckel a0:    9.0000 [Angstrom]
    Equilibrium Aqueous Reaction: 
        -1.0000  Fe+++                           
        -0.5000  H2O                             
         0.2500  O2(g)                           
         1.0000  Fe++                            
         1.0000  H+                              
      logK:    -9.3541    -7.7654    -5.8970    -4.1507    -2.3795    -0.9223     0.3233     1.4215

  CH4(aq)   (redox species)
    Charge:   0.00
    Molar Mass:    0.0000 [g/mol]
    Debye-Huckel a0:    3.0000 [Angstrom]
    Equilibrium Aqueous Reaction: 
        -1.0000  CH4(aq)                         
         1.0000  HCO3-                           
         1.0000  H2O                             
         1.0000  H+                              
        -2.0000  O2(g)                           
      logK:   152.5068   138.3445   121.9181   106.7680    91.6845    79.6132    69.6577    61.1712


 Secondary Species:
  OH-
    Charge:  -1.00
    Molar Mass:   17.0073 [g/mol]
    Debye-Huckel a0:    3.5000 [Angstrom]
    Equilibrium Aqueous Reaction: 
        -1.0000  OH-                             
        -1.0000  H+                              
         1.0000  H2O                             
      logK:    14.9398    13.9951    13.0272    12.2551    11.6308    11.2836    11.1675    11.3002

  CO2(aq)
    Charge:   0.00
    Molar Mass:   44.0098 [g/mol]
    Debye-Huckel a0:    3.0000 [Angstrom]
    Equilibrium Aqueous Reaction: 
        -1.0000  CO2(aq)                         
        -1.0000  H2O                             
         1.0000  H+                              
         1.0000  HCO3-                           
      logK:    -6.5804    -6.3447    -6.2684    -6.3882    -6.7235    -7.1969    -7.7868    -8.5280


 Gas Components:
  CO2(g)
    Molar Mass:   44.0098 [g/mol]
    Gas Reaction: 
        -1.0000  CO2(g)                          
        -1.0000  H2O                             
         1.0000  H+                              
         1.0000  HCO3-                           
      logK:    -7.6765    -7.8136    -8.0527    -8.3574    -8.7692    -9.2165    -9.7202   -10.3393

  O2(g)
    Molar Mass:   31.9988 [g/mol]
    Gas Reaction: 
        -1.0000  O2(g)                           
         1.0000  O2(aq)                          
      logK:    -2.6567    -2.8983    -3.0633    -3.1076    -3.0354    -2.8742    -2.6488    -2.3537


 Minerals:
  SOM
    Molar Mass:  180.1566 [g/mol]
    Molar Volume:  1.0000E-04 [m^3/mol]
    Mineral Reaction: 
        -1.0000  SOM                             
         1.0000  DOM1                            
      logK:   100.0000   100.0000   100.0000   100.0000   100.0000   100.0000   100.0000   100.0000

  Fe(OH)3
    Molar Mass:  106.8690 [g/mol]
    Molar Volume:  3.4360E-05 [m^3/mol]
    Mineral Reaction: 
        -1.0000  Fe(OH)3                         
        -3.0000  H+                              
         1.0000  Fe+++                           
         3.0000  H2O                             
      logK:     6.9971     5.6556     4.1038     2.6878     1.2773     0.1146    -0.9130    -1.8839


 Surface Complexation Reactions: None

   Surface Complexes: None

 Ion Exchange Reactions: None

 ! ************************************************************************** !

 WARNING: Inhibition species "O2(aq) not found in microbial reaction.
 WARNING: Inhibition species "O2(aq) not found in microbial reaction.
 WARNING: Inhibition species "Fe+++ not found in microbial reaction.
 WARNING: Inhibition species "O2(aq) not found in microbial reaction.
 WARNING: Inhibition species "Fe+++ not found in microbial reaction.
 WARNING: Inhibition species "H+ not found in microbial reaction.
 WARNING: Inhibition species "H+ not found in microbial reaction.
 WARNING: Inhibition species "O2(aq) not found in microbial reaction.

 ! ************************************************************************** !

 Final Basis

 Primary Species:
  DOM1   (redox species)
    Charge:   0.00
    Molar Mass:  180.1566 [g/mol]
    Debye-Huckel a0:    3.0000 [Angstrom]

  O2(aq)   (redox species)
    Charge:   0.00
    Molar Mass:   31.9988 [g/mol]
    Debye-Huckel a0:    3.0000 [Angstrom]

  HCO3-   (redox species)
    Charge:  -1.00
    Molar Mass:   61.0171 [g/mol]
    Debye-Huckel a0:    4.0000 [Angstrom]

  H+   (redox species)
    Charge:   1.00
    Molar Mass:    1.0079 [g/mol]
    Debye-Huckel a0:    9.0000 [Angstrom]

  Acetate-   (redox species)
    Charge:  -1.00
    Molar Mass:   59.0446 [g/mol]
    Debye-Huckel a0:    4.5000 [Angstrom]

  H2(aq)   (redox species)
    Charge:   0.00
    Molar Mass:    2.0159 [g/mol]
    Debye-Huckel a0:    3.0000 [Angstrom]

  Tracer   (redox species)
    Charge:   0.00
    Molar Mass:    0.0000 [g/mol]
    Debye-Huckel a0:    0.0000 [Angstrom]

  Fe++   (redox species)
    Charge:   2.00
    Molar Mass:   55.8470 [g/mol]
    Debye-Huckel a0:    6.0000 [Angstrom]

  Fe+++   (redox species)
    Charge:   3.00
    Molar Mass:   55.8470 [g/mol]
    Debye-Huckel a0:    9.0000 [Angstrom]

  CH4(aq)   (redox species)
    Charge:   0.00
    Molar Mass:    0.0000 [g/mol]
    Debye-Huckel a0:    3.0000 [Angstrom]


 Secondary Species:
  OH-
    Charge:  -1.00
    Molar Mass:   17.0073 [g/mol]
    Debye-Huckel a0:    3.5000 [Angstrom]
    Equilibrium Aqueous Reaction: 
        -1.0000  OH-                             
         1.0000  H2O                             
        -1.0000  H+                              
      logK:    14.9398    13.9951    13.0272    12.2551    11.6308    11.2836    11.1675    11.3002

  CO2(aq)
    Charge:   0.00
    Molar Mass:   44.0098 [g/mol]
    Debye-Huckel a0:    3.0000 [Angstrom]
    Equilibrium Aqueous Reaction: 
        -1.0000  CO2(aq)                         
        -1.0000  H2O                             
         1.0000  HCO3-                           
         1.0000  H+                              
      logK:    -6.5804    -6.3447    -6.2684    -6.3882    -6.7235    -7.1969    -7.7868    -8.5280


 Gas Components:
  CO2(g)
    Molar Mass:   44.0098 [g/mol]
    Gas Reaction: 
        -1.0000  CO2(g)                          
        -1.0000  H2O                             
         1.0000  HCO3-                           
         1.0000  H+                              
      logK:    -7.6765    -7.8136    -8.0527    -8.3574    -8.7692    -9.2165    -9.7202   -10.3393

  O2(g)
    Molar Mass:   31.9988 [g/mol]
    Gas Reaction: 
        -1.0000  O2(g)                           
         1.0000  O2(aq)                          
      logK:    -2.6567    -2.8983    -3.0633    -3.1076    -3.0354    -2.8742    -2.6488    -2.3537


 Minerals:
  SOM
    Molar Mass:  180.1566 [g/mol]
    Molar Volume:  1.0000E-04 [m^3/mol]
    Mineral Reaction: 
        -1.0000  SOM                             
         1.0000  DOM1                            
      logK:   100.0000   100.0000   100.0000   100.0000   100.0000   100.0000   100.0000   100.0000

  Fe(OH)3
    Molar Mass:  106.8690 [g/mol]
    Molar Volume:  3.4360E-05 [m^3/mol]
    Mineral Reaction: 
        -1.0000  Fe(OH)3                         
         3.0000  H2O                             
        -3.0000  H+                              
         1.0000  Fe+++                           
      logK:     6.9971     5.6556     4.1038     2.6878     1.2773     0.1146    -0.9130    -1.8839


 Surface Complexation Reactions: None

   Surface Complexes: None

 Ion Exchange Reactions: None

 ! ************************************************************************** !

--------------------------------------------------------------------------------

    10  Primary Species

              DOM1                  O2(aq)                HCO3-               
              H+                    Acetate-              H2(aq)              
              Tracer                Fe++                  Fe+++               
              CH4(aq)             

     2  Secondary Complex Species

              OH-                   CO2(aq)             

     0  Active Gas Species



     2  Passive Gas Species

              CO2(g)                O2(g)               

     2  Reference Minerals

              SOM                   Fe(OH)3             

     2  Kinetic Mineral Reactions

              SOM                   Fe(OH)3             

     0  Ion Exchange Reactions

     0  Ion Exchange Cations
--------------------------------------------------------------------------------
Domain Bounds (x y z):
    0.0000000000E+00  0.0000000000E+00  0.0000000000E+00
    6.0000000000E+00  1.0000000000E+00  1.0000000000E+00
 Extent of Gridded Domain
  X: 0.0000000000000000 - 6.0000000000000000
  Y: 0.0000000000000000 - 1.0000000000000000
  Z: 0.0000000000000000 - 1.0000000000000000

  Setting up TRAN Realization
  Finished setting up TRAN Realization

=+=+=+=+=+=+=+=+=+=+=+=+=+=+=+=+=+=+=+=+=+=+=+=+=+=+=+=+=+=+=+=+=+=+=+=+=+=+=+=+

  Initial Condition

--------------------------------------------------------------------------------
     Transport Condition:   initial
                  Region:   all
--------------------------------------------------------------------------------

  Transport Condition: initial

  Constraint: oc_rich
  ----------------------------------------------------------------------------
        iterations:     9
                pH:   6.0000
                pe:  13.1061
                Eh:   0.7753
    ionic strength:   7.4369E-04 [mol/L]
    charge balance:   7.3468E-04
          pressure:   1.0132E+05 [Pa]
       temperature:    25.00 [C]
       density H2O:  1000.00 [kg/m^3]
 ln / activity H2O:   0.0000E+00  1.0000E+00    [---]
 mole fraction H2O:   9.9999E-01    [---]
 mass fraction H2O:   9.9998E-01    [---]
  ----------------------------------------------------------------------------

  primary                   free        total
  species                   molal       molal       act coef     constraint
  ----------------------------------------------------------------------------
  DOM1                      1.0000E-10  1.0000E-10  1.0000E+00    total aq
  O2(aq)                    1.0000E-10  1.0000E-10  1.0000E+00    total aq
  HCO3-                     6.3371E-06  1.9925E-05  9.6954E-01    CO2(g)
  H+                        1.0301E-06  1.4608E-05  9.7079E-01    pH
  Acetate-                  1.0000E-10  1.0000E-10  9.6967E-01    total aq
  H2(aq)                    1.0000E-10  1.0000E-10  1.0000E+00    total aq
  Tracer                    1.0000E-10  1.0000E-10  1.0000E+00    total aq
  Fe++                      3.7000E-04  3.7000E-04  8.8531E-01    total aq
  Fe+++                     5.9117E-13  5.9117E-13  7.6540E-01    Fe(OH)3
  CH4(aq)                   1.0000E-10  1.0000E-10  1.0000E+00    total aq

  complex                   molality    act coef        logK
  ----------------------------------------------------------------------------
  CO2(aq)                   1.3588E-05  1.0000E+00   -6.3447E+00
  OH-                       1.0433E-08  9.6941E-01    1.3995E+01

  mineral                             log SI       Affinity     log K
                                                   [kJ/mol]
  ----------------------------------------------------------------------------
  Fe(OH)3                               0.0000     -0.0000    5.6556E+00
  SOM                                -110.0000 627880.8476    1.0000E+02

  gas              par pres [bars]  conc [mol/m^3]  log K
  ----------------------------------------------------------------------------
  CO2(g)           4.0000E-04       1.6136E-02      -7.8136E+00
  O2(g)            7.9122E-08       3.1918E-06      -2.8983E+00


--------------------------------------------------------------------------------

=+=+=+=+=+=+=+=+=+=+=+=+=+=+=+=+=+=+=+=+=+=+=+=+=+=+=+=+=+=+=+=+=+=+=+=+=+=+=+=+

  Boundary Condition

--------------------------------------------------------------------------------
     Transport Condition:   initial
                  Region:   east
--------------------------------------------------------------------------------

  Transport Condition: initial

  Constraint: oc_rich
  ----------------------------------------------------------------------------
        iterations:     9
                pH:   6.0000
                pe:  13.1061
                Eh:   0.7753
    ionic strength:   7.4369E-04 [mol/L]
    charge balance:   7.3468E-04
          pressure:   1.0132E+05 [Pa]
       temperature:    25.00 [C]
       density H2O:  1000.00 [kg/m^3]
 ln / activity H2O:   0.0000E+00  1.0000E+00    [---]
 mole fraction H2O:   9.9999E-01    [---]
 mass fraction H2O:   9.9998E-01    [---]
  ----------------------------------------------------------------------------

  primary                   free        total
  species                   molal       molal       act coef     constraint
  ----------------------------------------------------------------------------
  DOM1                      1.0000E-10  1.0000E-10  1.0000E+00    total aq
  O2(aq)                    1.0000E-10  1.0000E-10  1.0000E+00    total aq
  HCO3-                     6.3371E-06  1.9925E-05  9.6954E-01    CO2(g)
  H+                        1.0301E-06  1.4608E-05  9.7079E-01    pH
  Acetate-                  1.0000E-10  1.0000E-10  9.6967E-01    total aq
  H2(aq)                    1.0000E-10  1.0000E-10  1.0000E+00    total aq
  Tracer                    1.0000E-10  1.0000E-10  1.0000E+00    total aq
  Fe++                      3.7000E-04  3.7000E-04  8.8531E-01    total aq
  Fe+++                     5.9117E-13  5.9117E-13  7.6540E-01    Fe(OH)3
  CH4(aq)                   1.0000E-10  1.0000E-10  1.0000E+00    total aq

  complex                   molality    act coef        logK
  ----------------------------------------------------------------------------
  CO2(aq)                   1.3588E-05  1.0000E+00   -6.3447E+00
  OH-                       1.0433E-08  9.6941E-01    1.3995E+01

  mineral                             log SI       Affinity     log K
                                                   [kJ/mol]
  ----------------------------------------------------------------------------
  Fe(OH)3                               0.0000     -0.0000    5.6556E+00
  SOM                                -110.0000 627880.8476    1.0000E+02

  gas              par pres [bars]  conc [mol/m^3]  log K
  ----------------------------------------------------------------------------
  CO2(g)           4.0000E-04       1.6136E-02      -7.8136E+00
  O2(g)            7.9122E-08       3.1918E-06      -2.8983E+00


--------------------------------------------------------------------------------
Default HDF5 method is used in Initialization

 Requested processors and decomposition =     1, npx,y,z=   -1  -1  -1
 Actual decomposition: npx,y,z=    1   1   1

mode = Reactive Transport
  Beginning setup of TRAN SNES
  Finished setting up TRAN SNES

TRAN Time Stepper SNES
      maximum number of steps: 999999
constant time steps threshold: 5
       maximum number of cuts: 16
             reduction factor: 5.000000E-01
        maximum growth factor: 2.000000E+00
                 acceleration: on
       acceleration threshold: 5
       number of ramp entries: 5
                ramp entry #1: 2.0000
                ramp entry #2: 2.0000
                ramp entry #3: 2.0000
                ramp entry #4: 2.0000
                ramp entry #5: 2.0000
                ramp entry #6: 1.8000
                ramp entry #7: 1.6000
                ramp entry #8: 1.4000
                ramp entry #9: 1.2000
               ramp entry #10: 1.0000
               ramp entry #11: 1.0000
               ramp entry #12: 1.0000
               ramp entry #13: 1.0000

TRAN Newton Solver
                         atol: 1.000000E-50
                         rtol: 1.000000E-08
                         stol: 1.000000E-08
                         dtol: 1.000000E+04
                      maxnorm: 1.000000E+20
                    inftolres: -9.990000E+02
                    inftolupd: -9.990000E+02
                 inftolrelupd: -9.990000E+02
                 inftolsclres: -9.990000E+02
                     max iter: 50
                     min iter: 1
                         maxf: 10000
                  matrix type: baij
         precond. matrix type: baij
               inexact newton: off
            print convergence: on
   print detailed convergence: off
          check infinity norm: on

TRAN Linear Solver
                       solver: preonly
               preconditioner: lu
                         atol: 1.000000E-50
                         rtol: 1.000000E-05
                         dtol: 1.000000E+04
            maximum iteration: 10000

 --> creating hdf5 output file: /mnt/d/permafrost_transport_demo/data/pflotran_dir/arctic-subsurface_all.h5
      0.04 Seconds to write HDF5 file.

 Finished Initialization


== REACTIVE TRANSPORT ==========================================================
  0 2r: 2.25E-08 2x: 0.00E+00 2u: 0.00E+00 ir: 2.25E-09 iu: 0.00E+00 rsn:   0
  1 2r: 2.19E-08 2x: 5.96E+02 2u: 1.00E+02 ir: 2.18E-09 iu: 5.00E+00 rsn:   0
  2 2r: 7.96E-08 2x: 5.77E+02 2u: 5.19E+01 ir: 7.92E-09 iu: 5.00E+00 rsn:   0
  3 2r: 2.43E-08 2x: 5.80E+02 2u: 8.75E+00 ir: 2.42E-09 iu: 7.79E-01 rsn:   0
  4 2r: 5.34E-09 2x: 5.82E+02 2u: 5.28E+00 ir: 5.30E-10 iu: 5.18E-01 rsn:   0
  5 2r: 4.78E-10 2x: 5.82E+02 2u: 1.91E+00 ir: 4.75E-11 iu: 1.91E-01 rsn:   0
  6 2r: 4.91E-12 2x: 5.82E+02 2u: 2.07E-01 ir: 4.88E-13 iu: 2.07E-02 rsn:   0
  7 2r: 5.33E-16 2x: 5.82E+02 2u: 2.17E-03 ir: 5.30E-17 iu: 2.17E-04 rsn:   0
  8 2r: 1.85E-19 2x: 5.82E+02 2u: 2.35E-07 ir: 1.75E-20 iu: 2.35E-08 rsn: rtol

 Step      1 Time=  1.14155E-04 Dt=  1.14155E-04 [y] conv_reason: 3
  newton =   8 [       8] linear =     8 [         8] cuts =  0 [   0]
  --> SNES Linear/Non-Linear Iterations = 8 / 8
  --> SNES Residual: 0.184694E-18 0.184694E-18 0.175070E-19
  --> max change:  dcmx=   4.8732E-07  dc/dt=   1.3537E-10 [mol/s]
                  dvfmx=   1.3499E-08 dvf/dt=   3.7497E-12 [1/s]

== REACTIVE TRANSPORT ==========================================================
  0 2r: 2.04E-08 2x: 0.00E+00 2u: 0.00E+00 ir: 2.03E-09 iu: 0.00E+00 rsn:   0
  1 2r: 5.77E-09 2x: 5.75E+02 2u: 1.36E+01 ir: 5.68E-10 iu: 7.35E-01 rsn:   0
  2 2r: 2.45E-10 2x: 5.76E+02 2u: 3.02E+00 ir: 2.28E-11 iu: 1.68E-01 rsn:   0
  3 2r: 8.69E-13 2x: 5.76E+02 2u: 2.75E-01 ir: 6.29E-14 iu: 1.58E-02 rsn:   0
  4 2r: 4.91E-17 2x: 5.76E+02 2u: 2.16E-03 ir: 4.06E-18 iu: 1.26E-04 rsn: rtol

 Step      2 Time=  1.71233E-04 Dt=  5.70776E-05 [y] conv_reason: 3
  newton =   4 [      12] linear =     4 [        12] cuts =  0 [   0]
  --> SNES Linear/Non-Linear Iterations = 4 / 4
  --> SNES Residual: 0.491257E-16 0.491257E-16 0.405820E-17
  --> max change:  dcmx=   2.3118E-07  dc/dt=   1.2843E-10 [mol/s]
                  dvfmx=   6.7495E-09 dvf/dt=   3.7497E-12 [1/s]

== REACTIVE TRANSPORT ==========================================================
  0 2r: 1.96E-08 2x: 0.00E+00 2u: 0.00E+00 ir: 1.93E-09 iu: 0.00E+00 rsn:   0
  1 2r: 7.98E-09 2x: 5.63E+02 2u: 2.40E+01 ir: 6.85E-10 iu: 1.34E+00 rsn:   0
  2 2r: 8.46E-10 2x: 5.66E+02 2u: 6.79E+00 ir: 6.17E-11 iu: 3.87E-01 rsn:   0
  3 2r: 3.69E-11 2x: 5.67E+02 2u: 1.68E+00 ir: 3.02E-12 iu: 9.73E-02 rsn:   0
  4 2r: 9.30E-14 2x: 5.67E+02 2u: 8.70E-02 ir: 7.64E-15 iu: 5.06E-03 rsn:   0
  5 2r: 7.16E-19 2x: 5.67E+02 2u: 2.19E-04 ir: 4.90E-20 iu: 1.28E-05 rsn: rtol

 Step      3 Time=  2.85388E-04 Dt=  1.14155E-04 [y] conv_reason: 3
  newton =   5 [      17] linear =     5 [        17] cuts =  0 [   0]
  --> SNES Linear/Non-Linear Iterations = 5 / 5
  --> SNES Residual: 0.716319E-18 0.716319E-18 0.489909E-19
  --> max change:  dcmx=   4.1730E-07  dc/dt=   1.1592E-10 [mol/s]
                  dvfmx=   1.3499E-08 dvf/dt=   3.7497E-12 [1/s]

== REACTIVE TRANSPORT ==========================================================
  0 2r: 1.82E-08 2x: 0.00E+00 2u: 0.00E+00 ir: 1.74E-09 iu: 0.00E+00 rsn:   0
  1 2r: 1.33E-08 2x: 5.47E+02 2u: 3.35E+01 ir: 9.47E-10 iu: 1.84E+00 rsn:   0
  2 2r: 2.85E-09 2x: 5.53E+02 2u: 9.78E+00 ir: 2.31E-10 iu: 5.48E-01 rsn:   0
  3 2r: 2.92E-10 2x: 5.55E+02 2u: 3.78E+00 ir: 2.39E-11 iu: 2.18E-01 rsn:   0
  4 2r: 3.99E-12 2x: 5.55E+02 2u: 4.76E-01 ir: 3.27E-13 iu: 2.76E-02 rsn:   0
  5 2r: 7.70E-16 2x: 5.55E+02 2u: 6.67E-03 ir: 6.32E-17 iu: 3.87E-04 rsn:   0
  6 2r: 5.16E-19 2x: 5.55E+02 2u: 1.28E-06 ir: 4.90E-20 iu: 7.49E-08 rsn: rtol

 Step      4 Time=  5.13699E-04 Dt=  2.28311E-04 [y] conv_reason: 3
  newton =   6 [      23] linear =     6 [        23] cuts =  0 [   0]
  --> SNES Linear/Non-Linear Iterations = 6 / 6
  --> SNES Residual: 0.516137E-18 0.516137E-18 0.489636E-19
  --> max change:  dcmx=   6.8639E-07  dc/dt=   9.5332E-11 [mol/s]
                  dvfmx=   2.6998E-08 dvf/dt=   3.7497E-12 [1/s]

== REACTIVE TRANSPORT ==========================================================
  0 2r: 1.67E-08 2x: 0.00E+00 2u: 0.00E+00 ir: 1.43E-09 iu: 0.00E+00 rsn:   0
  1 2r: 2.04E-09 2x: 5.50E+02 2u: 7.53E+00 ir: 1.30E-10 iu: 3.79E-01 rsn:   0
  2 2r: 4.65E-11 2x: 5.51E+02 2u: 1.06E+00 ir: 3.74E-12 iu: 5.60E-02 rsn:   0
  3 2r: 3.76E-14 2x: 5.51E+02 2u: 2.94E-02 ir: 3.08E-15 iu: 1.63E-03 rsn:   0
  4 2r: 9.26E-19 2x: 5.51E+02 2u: 2.31E-05 ir: 1.09E-19 iu: 1.32E-06 rsn: rtol

 Step      5 Time=  6.27854E-04 Dt=  1.14155E-04 [y] conv_reason: 3
  newton =   4 [      27] linear =     4 [        27] cuts =  0 [   0]
  --> SNES Linear/Non-Linear Iterations = 4 / 4
  --> SNES Residual: 0.925932E-18 0.925932E-18 0.108829E-18
  --> max change:  dcmx=   3.0975E-07  dc/dt=   8.6043E-11 [mol/s]
                  dvfmx=   1.3499E-08 dvf/dt=   3.7497E-12 [1/s]

== REACTIVE TRANSPORT ==========================================================
  0 2r: 1.66E-08 2x: 0.00E+00 2u: 0.00E+00 ir: 1.29E-09 iu: 0.00E+00 rsn:   0
  1 2r: 4.30E-09 2x: 5.41E+02 2u: 1.47E+01 ir: 3.23E-10 iu: 8.24E-01 rsn:   0
  2 2r: 2.96E-10 2x: 5.43E+02 2u: 3.26E+00 ir: 2.41E-11 iu: 1.97E-01 rsn:   0
  3 2r: 1.82E-12 2x: 5.43E+02 2u: 3.07E-01 ir: 1.49E-13 iu: 2.21E-02 rsn:   0
  4 2r: 6.94E-17 2x: 5.43E+02 2u: 2.81E-03 ir: 5.67E-18 iu: 2.48E-04 rsn: rtol

 Step      6 Time=  8.56164E-04 Dt=  2.28311E-04 [y] conv_reason: 3
  newton =   4 [      31] linear =     4 [        31] cuts =  0 [   0]
  --> SNES Linear/Non-Linear Iterations = 4 / 4
  --> SNES Residual: 0.693875E-16 0.693875E-16 0.567173E-17
  --> max change:  dcmx=   5.0951E-07  dc/dt=   7.0766E-11 [mol/s]
                  dvfmx=   2.6998E-08 dvf/dt=   3.7497E-12 [1/s]

== REACTIVE TRANSPORT ==========================================================
  0 2r: 1.64E-08 2x: 0.00E+00 2u: 0.00E+00 ir: 1.06E-09 iu: 0.00E+00 rsn:   0
  1 2r: 8.95E-09 2x: 5.26E+02 2u: 2.64E+01 ir: 7.20E-10 iu: 1.88E+00 rsn:   0
  2 2r: 1.15E-09 2x: 5.30E+02 2u: 7.32E+00 ir: 9.39E-11 iu: 5.55E-01 rsn:   0
  3 2r: 2.58E-11 2x: 5.32E+02 2u: 2.38E+00 ir: 2.11E-12 iu: 2.25E-01 rsn:   0
  4 2r: 1.57E-14 2x: 5.32E+02 2u: 2.95E-01 ir: 1.12E-15 iu: 2.94E-02 rsn:   0
  5 2r: 1.79E-18 2x: 5.32E+02 2u: 4.42E-03 ir: 1.69E-19 iu: 4.42E-04 rsn: rtol

 Step      7 Time=  1.31279E-03 Dt=  4.56621E-04 [y] conv_reason: 3
  newton =   5 [      36] linear =     5 [        36] cuts =  0 [   0]
  --> SNES Linear/Non-Linear Iterations = 5 / 5
  --> SNES Residual: 0.179101E-17 0.179101E-17 0.169322E-18
  --> max change:  dcmx=   9.6587E-07  dc/dt=   6.7074E-11 [mol/s]
                  dvfmx=   5.3996E-08 dvf/dt=   3.7497E-12 [1/s]

== REACTIVE TRANSPORT ==========================================================
  0 2r: 1.69E-08 2x: 0.00E+00 2u: 0.00E+00 ir: 1.01E-09 iu: 0.00E+00 rsn:   0
  1 2r: 1.46E-08 2x: 5.08E+02 2u: 3.89E+01 ir: 1.19E-09 iu: 3.09E+00 rsn:   0
  2 2r: 2.35E-09 2x: 5.13E+02 2u: 1.02E+01 ir: 1.92E-10 iu: 8.08E-01 rsn:   0
  3 2r: 9.16E-11 2x: 5.16E+02 2u: 5.85E+00 ir: 7.42E-12 iu: 5.69E-01 rsn:   0
  4 2r: 1.27E-12 2x: 5.17E+02 2u: 2.39E+00 ir: 1.26E-13 iu: 2.39E-01 rsn:   0
  5 2r: 2.09E-14 2x: 5.17E+02 2u: 3.34E-01 ir: 2.09E-15 iu: 3.34E-02 rsn:   0
  6 2r: 5.99E-18 2x: 5.17E+02 2u: 5.70E-03 ir: 5.95E-19 iu: 5.70E-04 rsn: rtol

 Step      8 Time=  2.22603E-03 Dt=  9.13242E-04 [y] conv_reason: 3
  newton =   6 [      42] linear =     6 [        42] cuts =  0 [   0]
  --> SNES Linear/Non-Linear Iterations = 6 / 6
  --> SNES Residual: 0.599186E-17 0.599186E-17 0.594950E-18
  --> max change:  dcmx=   2.3716E-06  dc/dt=   8.2347E-11 [mol/s]
                  dvfmx=   1.0799E-07 dvf/dt=   3.7497E-12 [1/s]

== REACTIVE TRANSPORT ==========================================================
  0 2r: 1.75E-08 2x: 0.00E+00 2u: 0.00E+00 ir: 1.24E-09 iu: 0.00E+00 rsn:   0
  1 2r: 2.68E-09 2x: 5.11E+02 2u: 8.67E+00 ir: 2.12E-10 iu: 5.07E-01 rsn:   0
  2 2r: 4.66E-11 2x: 5.12E+02 2u: 1.12E+00 ir: 3.80E-12 iu: 9.13E-02 rsn:   0
  3 2r: 1.54E-14 2x: 5.12E+02 2u: 4.57E-02 ir: 1.25E-15 iu: 4.43E-03 rsn:   0
  4 2r: 9.27E-19 2x: 5.12E+02 2u: 9.83E-05 ir: 1.39E-19 iu: 9.82E-06 rsn: rtol

 Step      9 Time=  2.68265E-03 Dt=  4.56621E-04 [y] conv_reason: 3
  newton =   4 [      46] linear =     4 [        46] cuts =  0 [   0]
  --> SNES Linear/Non-Linear Iterations = 4 / 4
  --> SNES Residual: 0.926938E-18 0.926938E-18 0.138766E-18
  --> max change:  dcmx=   1.2626E-06  dc/dt=   8.7680E-11 [mol/s]
                  dvfmx=   5.3996E-08 dvf/dt=   3.7497E-12 [1/s]

== REACTIVE TRANSPORT ==========================================================
  0 2r: 1.93E-08 2x: 0.00E+00 2u: 0.00E+00 ir: 1.32E-09 iu: 0.00E+00 rsn:   0
  1 2r: 5.07E-09 2x: 5.02E+02 2u: 1.64E+01 ir: 4.00E-10 iu: 1.04E+00 rsn:   0
  2 2r: 2.06E-10 2x: 5.04E+02 2u: 3.23E+00 ir: 1.68E-11 iu: 2.78E-01 rsn:   0
  3 2r: 4.21E-13 2x: 5.04E+02 2u: 4.73E-01 ir: 3.28E-14 iu: 4.67E-02 rsn:   0
  4 2r: 7.13E-17 2x: 5.04E+02 2u: 1.13E-02 ir: 7.13E-18 iu: 1.13E-03 rsn: rtol

 Step     10 Time=  3.59589E-03 Dt=  9.13242E-04 [y] conv_reason: 3
  newton =   4 [      50] linear =     4 [        50] cuts =  0 [   0]
  --> SNES Linear/Non-Linear Iterations = 4 / 4
  --> SNES Residual: 0.713065E-16 0.713065E-16 0.712875E-17
  --> max change:  dcmx=   2.6900E-06  dc/dt=   9.3404E-11 [mol/s]
                  dvfmx=   1.0799E-07 dvf/dt=   3.7497E-12 [1/s]

== REACTIVE TRANSPORT ==========================================================
  0 2r: 1.92E-08 2x: 0.00E+00 2u: 0.00E+00 ir: 1.40E-09 iu: 0.00E+00 rsn:   0
  1 2r: 8.01E-09 2x: 4.88E+02 2u: 2.64E+01 ir: 6.35E-10 iu: 1.73E+00 rsn:   0
  2 2r: 5.62E-10 2x: 4.93E+02 2u: 6.54E+00 ir: 4.54E-11 iu: 5.26E-01 rsn:   0
  3 2r: 4.90E-12 2x: 4.94E+02 2u: 2.02E+00 ir: 3.47E-13 iu: 1.99E-01 rsn:   0
  4 2r: 3.91E-14 2x: 4.94E+02 2u: 2.26E-01 ir: 3.91E-15 iu: 2.26E-02 rsn:   0
  5 2r: 5.14E-18 2x: 4.94E+02 2u: 2.60E-03 ir: 5.09E-19 iu: 2.60E-04 rsn: rtol

 Step     11 Time=  5.42237E-03 Dt=  1.82648E-03 [y] conv_reason: 3
  newton =   5 [      55] linear =     5 [        55] cuts =  0 [   0]
  --> SNES Linear/Non-Linear Iterations = 5 / 5
  --> SNES Residual: 0.513904E-17 0.513904E-17 0.508768E-18
  --> max change:  dcmx=   5.6219E-06  dc/dt=   9.7602E-11 [mol/s]
                  dvfmx=   2.1598E-07 dvf/dt=   3.7497E-12 [1/s]

== REACTIVE TRANSPORT ==========================================================
  0 2r: 4.22E-08 2x: 0.00E+00 2u: 0.00E+00 ir: 3.40E-09 iu: 0.00E+00 rsn:   0
  1 2r: 1.06E-08 2x: 4.80E+02 2u: 2.93E+01 ir: 8.30E-10 iu: 2.18E+00 rsn:   0
  2 2r: 1.04E-09 2x: 4.86E+02 2u: 8.61E+00 ir: 7.81E-11 iu: 6.45E-01 rsn:   0
  3 2r: 2.09E-11 2x: 4.88E+02 2u: 3.44E+00 ir: 1.67E-12 iu: 3.26E-01 rsn:   0
  4 2r: 5.41E-13 2x: 4.88E+02 2u: 6.63E-01 ir: 5.41E-14 iu: 6.61E-02 rsn:   0
  5 2r: 6.18E-16 2x: 4.88E+02 2u: 2.29E-02 ir: 6.18E-17 iu: 2.29E-03 rsn:   0
  6 2r: 3.41E-19 2x: 4.88E+02 2u: 2.62E-05 ir: 3.65E-20 iu: 2.62E-06 rsn: rtol

 Step     12 Time=  9.07534E-03 Dt=  3.65297E-03 [y] conv_reason: 3
  newton =   6 [      61] linear =     6 [        61] cuts =  0 [   0]
  --> SNES Linear/Non-Linear Iterations = 6 / 6
  --> SNES Residual: 0.341339E-18 0.341339E-18 0.364894E-19
  --> max change:  dcmx=   1.1461E-05  dc/dt=   9.9489E-11 [mol/s]
                  dvfmx=   4.3197E-07 dvf/dt=   3.7497E-12 [1/s]

== REACTIVE TRANSPORT ==========================================================
  0 2r: 1.51E-07 2x: 0.00E+00 2u: 0.00E+00 ir: 1.41E-08 iu: 0.00E+00 rsn:   0
  1 2r: 2.35E-09 2x: 4.88E+02 2u: 8.18E+00 ir: 1.84E-10 iu: 5.74E-01 rsn:   0
  2 2r: 2.60E-11 2x: 4.90E+02 2u: 2.20E+00 ir: 2.03E-12 iu: 2.06E-01 rsn:   0
  3 2r: 3.89E-15 2x: 4.90E+02 2u: 2.55E-01 ir: 2.54E-16 iu: 2.54E-02 rsn:   0
  4 2r: 1.04E-18 2x: 4.90E+02 2u: 3.29E-03 ir: 1.10E-19 iu: 3.29E-04 rsn: rtol

 Step     13 Time=  1.09018E-02 Dt=  1.82648E-03 [y] conv_reason: 3
  newton =   4 [      65] linear =     4 [        65] cuts =  0 [   0]
  --> SNES Linear/Non-Linear Iterations = 4 / 4
  --> SNES Residual: 0.104074E-17 0.104074E-17 0.110067E-18
  --> max change:  dcmx=   5.7505E-06  dc/dt=   9.9835E-11 [mol/s]
                  dvfmx=   2.1598E-07 dvf/dt=   3.7497E-12 [1/s]

== REACTIVE TRANSPORT ==========================================================
  0 2r: 8.41E-08 2x: 0.00E+00 2u: 0.00E+00 ir: 7.64E-09 iu: 0.00E+00 rsn:   0
  1 2r: 4.14E-09 2x: 4.90E+02 2u: 1.37E+01 ir: 3.16E-10 iu: 8.05E-01 rsn:   0
  2 2r: 1.11E-10 2x: 4.93E+02 2u: 4.61E+00 ir: 8.37E-12 iu: 4.04E-01 rsn:   0
  3 2r: 1.62E-13 2x: 4.94E+02 2u: 1.19E+00 ir: 1.32E-14 iu: 1.18E-01 rsn:   0
  4 2r: 1.46E-17 2x: 4.94E+02 2u: 7.53E-02 ir: 1.45E-18 iu: 7.53E-03 rsn: rtol

 Step     14 Time=  1.45548E-02 Dt=  3.65297E-03 [y] conv_reason: 3
  newton =   4 [      69] linear =     4 [        69] cuts =  0 [   0]
  --> SNES Linear/Non-Linear Iterations = 4 / 4
  --> SNES Residual: 0.145561E-16 0.145561E-16 0.145285E-17
  --> max change:  dcmx=   1.1519E-05  dc/dt=   9.9990E-11 [mol/s]
                  dvfmx=   4.3197E-07 dvf/dt=   3.7497E-12 [1/s]

== REACTIVE TRANSPORT ==========================================================
  0 2r: 1.87E-07 2x: 0.00E+00 2u: 0.00E+00 ir: 1.76E-08 iu: 0.00E+00 rsn:   0
  1 2r: 6.61E-09 2x: 4.96E+02 2u: 2.16E+01 ir: 4.91E-10 iu: 1.38E+00 rsn:   0
  2 2r: 3.33E-10 2x: 5.00E+02 2u: 7.74E+00 ir: 2.44E-11 iu: 6.10E-01 rsn:   0
  3 2r: 4.48E-12 2x: 5.03E+02 2u: 3.53E+00 ir: 4.37E-13 iu: 3.37E-01 rsn:   0
  4 2r: 1.33E-14 2x: 5.03E+02 2u: 7.25E-01 ir: 1.33E-15 iu: 7.23E-02 rsn:   0
  5 2r: 3.63E-19 2x: 5.03E+02 2u: 2.74E-02 ir: 3.24E-20 iu: 2.74E-03 rsn: rtol

 Step     15 Time=  2.18607E-02 Dt=  7.30594E-03 [y] conv_reason: 3
  newton =   5 [      74] linear =     5 [        74] cuts =  0 [   0]
  --> SNES Linear/Non-Linear Iterations = 5 / 5
  --> SNES Residual: 0.363224E-18 0.363224E-18 0.323937E-19
  --> max change:  dcmx=   2.3047E-05  dc/dt=   1.0003E-10 [mol/s]
                  dvfmx=   8.6394E-07 dvf/dt=   3.7497E-12 [1/s]

== REACTIVE TRANSPORT ==========================================================
  0 2r: 3.83E-07 2x: 0.00E+00 2u: 0.00E+00 ir: 3.62E-08 iu: 0.00E+00 rsn:   0
  1 2r: 9.31E-09 2x: 5.05E+02 2u: 2.88E+01 ir: 6.76E-10 iu: 1.95E+00 rsn:   0
  2 2r: 7.55E-10 2x: 5.11E+02 2u: 1.02E+01 ir: 5.03E-11 iu: 7.41E-01 rsn:   0
  3 2r: 4.10E-11 2x: 5.16E+02 2u: 6.67E+00 ir: 4.07E-12 iu: 6.17E-01 rsn:   0
  4 2r: 7.51E-13 2x: 5.18E+02 2u: 3.01E+00 ir: 7.51E-14 iu: 2.98E-01 rsn:   0
  5 2r: 2.68E-16 2x: 5.18E+02 2u: 5.45E-01 ir: 2.68E-17 iu: 5.45E-02 rsn: rtol

 Step     16 Time=  3.64726E-02 Dt=  1.46119E-02 [y] conv_reason: 3
  newton =   5 [      79] linear =     5 [        79] cuts =  0 [   0]
  --> SNES Linear/Non-Linear Iterations = 5 / 5
  --> SNES Residual: 0.268296E-15 0.268296E-15 0.268296E-16
  --> max change:  dcmx=   4.6096E-05  dc/dt=   1.0004E-10 [mol/s]
                  dvfmx=   1.7279E-06 dvf/dt=   3.7497E-12 [1/s]

== REACTIVE TRANSPORT ==========================================================
  0 2r: 7.43E-07 2x: 0.00E+00 2u: 0.00E+00 ir: 7.04E-08 iu: 0.00E+00 rsn:   0
  1 2r: 1.21E-08 2x: 5.22E+02 2u: 3.35E+01 ir: 8.32E-10 iu: 2.28E+00 rsn:   0
  2 2r: 1.43E-09 2x: 5.29E+02 2u: 1.14E+01 ir: 9.06E-11 iu: 7.90E-01 rsn:   0
  3 2r: 1.45E-10 2x: 5.35E+02 2u: 8.94E+00 ir: 1.45E-11 iu: 8.21E-01 rsn:   0
  4 2r: 5.51E-12 2x: 5.39E+02 2u: 6.26E+00 ir: 5.51E-13 iu: 6.21E-01 rsn:   0
  5 2r: 8.87E-15 2x: 5.42E+02 2u: 2.95E+00 ir: 8.87E-16 iu: 2.95E-01 rsn:   0
  6 2r: 6.76E-19 2x: 5.42E+02 2u: 5.33E-01 ir: 6.42E-20 iu: 5.33E-02 rsn: rtol

 Step     17 Time=  6.56963E-02 Dt=  2.92237E-02 [y] conv_reason: 3
  newton =   6 [      85] linear =     6 [        85] cuts =  0 [   0]
  --> SNES Linear/Non-Linear Iterations = 6 / 6
  --> SNES Residual: 0.676372E-18 0.676372E-18 0.642180E-19
  --> max change:  dcmx=   9.2193E-05  dc/dt=   1.0004E-10 [mol/s]
                  dvfmx=   3.4558E-06 dvf/dt=   3.7497E-12 [1/s]

== REACTIVE TRANSPORT ==========================================================
  0 2r: 1.39E-06 2x: 0.00E+00 2u: 0.00E+00 ir: 1.32E-07 iu: 0.00E+00 rsn:   0
  1 2r: 5.14E-09 2x: 5.49E+02 2u: 1.32E+01 ir: 4.11E-10 iu: 1.13E+00 rsn:   0
  2 2r: 3.16E-11 2x: 5.55E+02 2u: 9.00E+00 ir: 2.00E-12 iu: 8.96E-01 rsn:   0
  3 2r: 1.29E-14 2x: 5.61E+02 2u: 7.80E+00 ir: 1.24E-15 iu: 7.80E-01 rsn: rtol

 Step     18 Time=  8.03082E-02 Dt=  1.46119E-02 [y] conv_reason: 3
  newton =   3 [      88] linear =     3 [        88] cuts =  0 [   0]
  --> SNES Linear/Non-Linear Iterations = 3 / 3
  --> SNES Residual: 0.129420E-13 0.129420E-13 0.123505E-14
  --> max change:  dcmx=   4.6096E-05  dc/dt=   1.0003E-10 [mol/s]
                  dvfmx=   1.7279E-06 dvf/dt=   3.7497E-12 [1/s]

== REACTIVE TRANSPORT ==========================================================
  0 2r: 6.69E-07 2x: 0.00E+00 2u: 0.00E+00 ir: 6.34E-08 iu: 0.00E+00 rsn:   0
  1 2r: 4.66E-09 2x: 5.68E+02 2u: 1.71E+01 ir: 3.14E-10 iu: 1.26E+00 rsn:   0
  2 2r: 1.51E-10 2x: 5.75E+02 2u: 9.47E+00 ir: 8.24E-12 iu: 9.21E-01 rsn:   0
  3 2r: 6.85E-13 2x: 5.82E+02 2u: 8.97E+00 ir: 6.76E-14 iu: 8.97E-01 rsn:   0
  4 2r: 5.41E-17 2x: 5.87E+02 2u: 7.49E+00 ir: 5.41E-18 iu: 7.49E-01 rsn: rtol

 Step     19 Time=  1.09532E-01 Dt=  2.92237E-02 [y] conv_reason: 3
  newton =   4 [      92] linear =     4 [        92] cuts =  0 [   0]
  --> SNES Linear/Non-Linear Iterations = 4 / 4
  --> SNES Residual: 0.541189E-16 0.541189E-16 0.541174E-17
  --> max change:  dcmx=   9.2191E-05  dc/dt=   1.0003E-10 [mol/s]
                  dvfmx=   3.4558E-06 dvf/dt=   3.7497E-12 [1/s]

== REACTIVE TRANSPORT ==========================================================
  0 2r: 1.27E-06 2x: 0.00E+00 2u: 0.00E+00 ir: 1.20E-07 iu: 0.00E+00 rsn:   0
  1 2r: 8.01E-09 2x: 5.95E+02 2u: 2.24E+01 ir: 4.89E-10 iu: 1.43E+00 rsn:   0
  2 2r: 5.53E-10 2x: 6.03E+02 2u: 9.95E+00 ir: 3.48E-11 iu: 9.12E-01 rsn:   0
  3 2r: 1.24E-11 2x: 6.11E+02 2u: 9.56E+00 ir: 1.23E-12 iu: 9.55E-01 rsn:   0
  4 2r: 1.62E-14 2x: 6.17E+02 2u: 8.89E+00 ir: 1.62E-15 iu: 8.90E-01 rsn:   0
  5 2r: 2.26E-19 2x: 6.23E+02 2u: 7.30E+00 ir: 2.13E-20 iu: 7.33E-01 rsn: rtol

 Step     20 Time=  1.67979E-01 Dt=  5.84475E-02 [y] conv_reason: 3
  newton =   5 [      97] linear =     5 [        97] cuts =  0 [   0]
  --> SNES Linear/Non-Linear Iterations = 5 / 5
  --> SNES Residual: 0.226451E-18 0.226451E-18 0.213147E-19
  --> max change:  dcmx=   1.8437E-04  dc/dt=   1.0003E-10 [mol/s]
                  dvfmx=   6.9115E-06 dvf/dt=   3.7497E-12 [1/s]

== REACTIVE TRANSPORT ==========================================================
  0 2r: 2.29E-06 2x: 0.00E+00 2u: 0.00E+00 ir: 2.17E-07 iu: 0.00E+00 rsn:   0
  1 2r: 1.38E-08 2x: 6.34E+02 2u: 2.24E+01 ir: 1.08E-09 iu: 3.04E+00 rsn:   0
  2 2r: 4.66E-10 2x: 6.43E+02 2u: 1.33E+01 ir: 2.82E-11 iu: 4.26E+00 rsn:   0
  3 2r: 5.97E-12 2x: 6.49E+02 2u: 9.72E+00 ir: 5.87E-13 iu: 5.00E+00 rsn:   0
  4 2r: 2.63E-15 2x: 6.53E+02 2u: 5.62E+00 ir: 2.63E-16 iu: 9.13E-01 rsn: rtol

 Step     21 Time=  2.50000E-01 Dt=  8.20205E-02 [y] conv_reason: 3
  newton =   4 [     101] linear =     4 [       101] cuts =  0 [   0]
  --> SNES Linear/Non-Linear Iterations = 4 / 4
  --> SNES Residual: 0.263105E-14 0.263105E-14 0.263103E-15
  --> max change:  dcmx=   2.5868E-04  dc/dt=   1.0001E-10 [mol/s]
                  dvfmx=   9.6991E-06 dvf/dt=   3.7497E-12 [1/s]

 --> appending to hdf5 output file: /mnt/d/permafrost_transport_demo/data/pflotran_dir/arctic-subsurface_all.h5
      0.02 Seconds to write HDF5 file.

== REACTIVE TRANSPORT ==========================================================
  0 2r: 2.84E-06 2x: 0.00E+00 2u: 0.00E+00 ir: 2.70E-07 iu: 0.00E+00 rsn:   0
  1 2r: 2.07E-08 2x: 6.47E+02 2u: 4.13E+01 ir: 1.80E-09 iu: 5.00E+00 rsn:   0
  2 2r: 4.43E-10 2x: 6.41E+02 2u: 3.56E+01 ir: 2.58E-11 iu: 5.00E+00 rsn:   0
  3 2r: 3.89E-12 2x: 6.40E+02 2u: 2.04E+01 ir: 3.76E-13 iu: 5.00E+00 rsn:   0
  4 2r: 8.18E-16 2x: 6.43E+02 2u: 1.46E+01 ir: 8.18E-17 iu: 5.00E+00 rsn: rtol

 Step     22 Time=  3.66895E-01 Dt=  1.16895E-01 [y] conv_reason: 3
  newton =   4 [     105] linear =     4 [       105] cuts =  0 [   0]
  --> SNES Linear/Non-Linear Iterations = 4 / 4
  --> SNES Residual: 0.818463E-15 0.818463E-15 0.818424E-16
  --> max change:  dcmx=   3.6847E-04  dc/dt=   9.9955E-11 [mol/s]
                  dvfmx=   1.3823E-05 dvf/dt=   3.7497E-12 [1/s]

== REACTIVE TRANSPORT ==========================================================
  0 2r: 3.51E-06 2x: 0.00E+00 2u: 0.00E+00 ir: 3.33E-07 iu: 0.00E+00 rsn:   0
  1 2r: 3.20E-08 2x: 6.53E+02 2u: 2.91E+01 ir: 2.96E-09 iu: 5.00E+00 rsn:   0
  2 2r: 2.17E-10 2x: 6.51E+02 2u: 2.84E+01 ir: 1.15E-11 iu: 5.00E+00 rsn:   0
  3 2r: 5.73E-13 2x: 6.51E+02 2u: 1.65E+01 ir: 5.32E-14 iu: 5.00E+00 rsn:   0
  4 2r: 1.15E-17 2x: 6.53E+02 2u: 1.27E+01 ir: 1.15E-18 iu: 5.00E+00 rsn: rtol

 Step     23 Time=  5.00000E-01 Dt=  1.33105E-01 [y] conv_reason: 3
  newton =   4 [     109] linear =     4 [       109] cuts =  0 [   0]
  --> SNES Linear/Non-Linear Iterations = 4 / 4
  --> SNES Residual: 0.115308E-16 0.115308E-16 0.115141E-17
  --> max change:  dcmx=   4.1915E-04  dc/dt=   9.9855E-11 [mol/s]
                  dvfmx=   1.5740E-05 dvf/dt=   3.7497E-12 [1/s]

 --> appending to hdf5 output file: /mnt/d/permafrost_transport_demo/data/pflotran_dir/arctic-subsurface_all.h5
      0.01 Seconds to write HDF5 file.

== REACTIVE TRANSPORT ==========================================================
  0 2r: 3.49E-06 2x: 0.00E+00 2u: 0.00E+00 ir: 3.31E-07 iu: 0.00E+00 rsn:   0
  1 2r: 3.14E-08 2x: 6.44E+02 2u: 4.01E+01 ir: 2.82E-09 iu: 5.00E+00 rsn:   0
  2 2r: 5.77E-10 2x: 6.43E+02 2u: 2.99E+01 ir: 3.07E-11 iu: 5.00E+00 rsn:   0
  3 2r: 4.18E-12 2x: 6.44E+02 2u: 1.78E+01 ir: 3.78E-13 iu: 5.00E+00 rsn:   0
  4 2r: 5.92E-16 2x: 6.46E+02 2u: 1.31E+01 ir: 5.92E-17 iu: 5.00E+00 rsn: rtol

 Step     24 Time=  7.50000E-01 Dt=  2.50000E-01 [y] conv_reason: 3
  newton =   4 [     113] linear =     4 [       113] cuts =  0 [   0]
  --> SNES Linear/Non-Linear Iterations = 4 / 4
  --> SNES Residual: 0.592434E-15 0.592434E-15 0.591882E-16
  --> max change:  dcmx=   7.8476E-04  dc/dt=   9.9538E-11 [mol/s]
                  dvfmx=   2.9563E-05 dvf/dt=   3.7497E-12 [1/s]

 --> appending to hdf5 output file: /mnt/d/permafrost_transport_demo/data/pflotran_dir/arctic-subsurface_all.h5
      0.01 Seconds to write HDF5 file.

== REACTIVE TRANSPORT ==========================================================
  0 2r: 5.46E-06 2x: 0.00E+00 2u: 0.00E+00 ir: 5.18E-07 iu: 0.00E+00 rsn:   0
  1 2r: 8.03E-08 2x: 6.49E+02 2u: 3.27E+01 ir: 7.58E-09 iu: 5.00E+00 rsn:   0
  2 2r: 1.69E-10 2x: 6.50E+02 2u: 3.02E+01 ir: 9.51E-12 iu: 5.00E+00 rsn:   0
  3 2r: 2.15E-13 2x: 6.48E+02 2u: 2.07E+01 ir: 1.71E-14 iu: 5.00E+00 rsn:   0
  4 2r: 9.08E-19 2x: 6.51E+02 2u: 1.42E+01 ir: 8.05E-20 iu: 5.00E+00 rsn: rtol

 Step     25 Time=  1.00000E+00 Dt=  2.50000E-01 [y] conv_reason: 3
  newton =   4 [     117] linear =     4 [       117] cuts =  0 [   0]
  --> SNES Linear/Non-Linear Iterations = 4 / 4
  --> SNES Residual: 0.907522E-18 0.907522E-18 0.804671E-19
  --> max change:  dcmx=   7.8082E-04  dc/dt=   9.9039E-11 [mol/s]
                  dvfmx=   2.9563E-05 dvf/dt=   3.7497E-12 [1/s]

 --> appending to hdf5 output file: /mnt/d/permafrost_transport_demo/data/pflotran_dir/arctic-subsurface_all.h5
      0.02 Seconds to write HDF5 file.

PMCSubsurfaceTransport
 Total Time: 1.0991E-01 seconds

 TRAN TS SNES steps = 25  newton = 117  linear = 117  cuts = 0
 TRAN TS SNES Wasted Linear Iterations = 0
 TRAN TS SNES Wasted Newton Iterations = 0
 TRAN TS SNES time = 0.1 seconds

 Wall Clock Time:  2.1130E-01 [sec]   3.5216E-03 [min]   5.8694E-05 [hr]
