
=================
  PFLOTRAN v5.0
=================

"grid_structured_type" set to default value.
"CHEMISTRY,MICROBIAL_REACTION,RATE_CONSTANT units" set to default value.
"CHEMISTRY,MICROBIAL_REACTION,RATE_CONSTANT units" set to default value.
"CHEMISTRY,MICROBIAL_REACTION,RATE_CONSTANT units" set to default value.
"CHEMISTRY,MICROBIAL_REACTION,RATE_CONSTANT units" set to default value.
"CHEMISTRY,MICROBIAL_REACTION,RATE_CONSTANT units" set to default value.
"CHEMISTRY,MICROBIAL_REACTION,RATE_CONSTANT units" set to default value.
"CHEMISTRY,MICROBIAL_REACTION,RATE_CONSTANT units" set to default value.
"CHEMISTRY,MICROBIAL_REACTION,RATE_CONSTANT units" set to default value.
"CHEMISTRY,MICROBIAL_REACTION,RATE_CONSTANT units" set to default value.
"CHEMISTRY,MICROBIAL_REACTION,RATE_CONSTANT units" set to default value.
pflotran card:: REFERENCE_LIQUID_DENSITY
"Reference Density units" set to default value.
pflotran card:: NUMERICAL_METHODS
pflotran card:: CHEMISTRY
"SOMPREFACTOR RATE UNITS" set to default value.
pflotran card:: CONSTRAINT
oc_rich
Constraint Species: DOM1
Constraint Species: O2(aq)
Constraint Species: HCO3-
Constraint Species: H+
Constraint Species: Acetate-
Constraint Species: H2(aq)
Constraint Species: Tracer
Constraint Species: Fe++
Constraint Species: Fe+++
Constraint Species: CH4(aq)
Constraint Minerals: SOM
"SOM SPECIFIC SURFACE_AREA UNITS" set to default value.
Constraint Minerals: Fe(OH)3
"Fe(OH)3 SPECIFIC SURFACE_AREA UNITS" set to default value.
pflotran card:: CONSTRAINT
oc_poor
Constraint Species: DOM1
Constraint Species: O2(aq)
Constraint Species: HCO3-
Constraint Species: H+
Constraint Species: Acetate-
Constraint Species: H2(aq)
Constraint Species: Tracer
Constraint Species: Fe++
Constraint Species: Fe+++
Constraint Species: CH4(aq)
Constraint Minerals: SOM
"SOM SPECIFIC SURFACE_AREA UNITS" set to default value.
Constraint Minerals: Fe(OH)3
"Fe(OH)3 SPECIFIC SURFACE_AREA UNITS" set to default value.
pflotran card:: GRID
pflotran card:: FLUID_PROPERTY
"FLUID_PROPERTY,diffusion_coefficient units" set to default value.
pflotran card:: MATERIAL_PROPERTY
  Name :: peat
pflotran card:: OUTPUT
"OUTPUT,FORMAT,HDF5,# FILES" set to default value.
pflotran card:: TIME
pflotran card:: REGION
all
pflotran card:: REGION
west
pflotran card:: REGION
east
pflotran card:: TRANSPORT_CONDITION
initial
pflotran card:: INITIAL_CONDITION
"Initial Condition name" set to default value.
pflotran card:: BOUNDARY_CONDITION
pflotran card:: STRATA
pflotran card:: END_SUBSURFACE

 ! ************************************************************************** !

 Initial Basis

 Primary Species:
  DOM1   (redox species)
    Charge:   0.00
    Molar Mass:  180.1566 [g/mol]
    Debye-Huckel a0:    3.0000 [Angstrom]

  O2(aq)   (redox species)
    Charge:   0.00
    Molar Mass:   31.9988 [g/mol]
    Debye-Huckel a0:    3.0000 [Angstrom]

  HCO3-   (redox species)
    Charge:  -1.00
    Molar Mass:   61.0171 [g/mol]
    Debye-Huckel a0:    4.0000 [Angstrom]

  H+   (redox species)
    Charge:   1.00
    Molar Mass:    1.0079 [g/mol]
    Debye-Huckel a0:    9.0000 [Angstrom]

  Acetate-   (redox species)
    Charge:  -1.00
    Molar Mass:   59.0446 [g/mol]
    Debye-Huckel a0:    4.5000 [Angstrom]
    Equilibrium Aqueous Reaction: 
        -1.0000  Acetate-                        
        -1.0000  H+                              
         1.0000  Acetic_acid(aq)                 
      logK:     4.7812     4.7572     4.8080     4.9438     5.1953     5.5241     5.9420     6.5094

  H2(aq)   (redox species)
    Charge:   0.00
    Molar Mass:    2.0159 [g/mol]
    Debye-Huckel a0:    3.0000 [Angstrom]
    Equilibrium Aqueous Reaction: 
        -1.0000  H2(aq)                          
        -0.5000  O2(g)                           
         1.0000  H2O                             
      logK:    49.1500    44.6575    39.4400    34.6224    29.8242    25.9892    22.8409    20.1881

  Tracer   (redox species)
    Charge:   0.00
    Molar Mass:    0.0000 [g/mol]
    Debye-Huckel a0:    0.0000 [Angstrom]

  Fe++   (redox species)
    Charge:   2.00
    Molar Mass:   55.8470 [g/mol]
    Debye-Huckel a0:    6.0000 [Angstrom]

  Fe+++   (redox species)
    Charge:   3.00
    Molar Mass:   55.8470 [g/mol]
    Debye-Huckel a0:    9.0000 [Angstrom]
    Equilibrium Aqueous Reaction: 
        -1.0000  Fe+++                           
        -0.5000  H2O                             
         0.2500  O2(g)                           
         1.0000  Fe++                            
         1.0000  H+                              
      logK:    -9.3541    -7.7654    -5.8970    -4.1507    -2.3795    -0.9223     0.3233     1.4215

  CH4(aq)   (redox species)
    Charge:   0.00
    Molar Mass:    0.0000 [g/mol]
    Debye-Huckel a0:    3.0000 [Angstrom]
    Equilibrium Aqueous Reaction: 
        -1.0000  CH4(aq)                         
         1.0000  HCO3-                           
         1.0000  H2O                             
         1.0000  H+                              
        -2.0000  O2(g)                           
      logK:   152.5068   138.3445   121.9181   106.7680    91.6845    79.6132    69.6577    61.1712


 Secondary Species:
  OH-
    Charge:  -1.00
    Molar Mass:   17.0073 [g/mol]
    Debye-Huckel a0:    3.5000 [Angstrom]
    Equilibrium Aqueous Reaction: 
        -1.0000  OH-                             
        -1.0000  H+                              
         1.0000  H2O                             
      logK:    14.9398    13.9951    13.0272    12.2551    11.6308    11.2836    11.1675    11.3002

  CO2(aq)
    Charge:   0.00
    Molar Mass:   44.0098 [g/mol]
    Debye-Huckel a0:    3.0000 [Angstrom]
    Equilibrium Aqueous Reaction: 
        -1.0000  CO2(aq)                         
        -1.0000  H2O                             
         1.0000  H+                              
         1.0000  HCO3-                           
      logK:    -6.5804    -6.3447    -6.2684    -6.3882    -6.7235    -7.1969    -7.7868    -8.5280


 Gas Components:
  CO2(g)
    Molar Mass:   44.0098 [g/mol]
    Gas Reaction: 
        -1.0000  CO2(g)                          
        -1.0000  H2O                             
         1.0000  H+                              
         1.0000  HCO3-                           
      logK:    -7.6765    -7.8136    -8.0527    -8.3574    -8.7692    -9.2165    -9.7202   -10.3393

  O2(g)
    Molar Mass:   31.9988 [g/mol]
    Gas Reaction: 
        -1.0000  O2(g)                           
         1.0000  O2(aq)                          
      logK:    -2.6567    -2.8983    -3.0633    -3.1076    -3.0354    -2.8742    -2.6488    -2.3537


 Minerals:
  SOM
    Molar Mass:  180.1566 [g/mol]
    Molar Volume:  1.0000E-04 [m^3/mol]
    Mineral Reaction: 
        -1.0000  SOM                             
         1.0000  DOM1                            
      logK:   100.0000   100.0000   100.0000   100.0000   100.0000   100.0000   100.0000   100.0000

  Fe(OH)3
    Molar Mass:  106.8690 [g/mol]
    Molar Volume:  3.4360E-05 [m^3/mol]
    Mineral Reaction: 
        -1.0000  Fe(OH)3                         
        -3.0000  H+                              
         1.0000  Fe+++                           
         3.0000  H2O                             
      logK:     6.9971     5.6556     4.1038     2.6878     1.2773     0.1146    -0.9130    -1.8839


 Surface Complexation Reactions: None

   Surface Complexes: None

 Ion Exchange Reactions: None

 ! ************************************************************************** !

 WARNING: Inhibition species "O2(aq) not found in microbial reaction.
 WARNING: Inhibition species "O2(aq) not found in microbial reaction.
 WARNING: Inhibition species "Fe+++ not found in microbial reaction.
 WARNING: Inhibition species "O2(aq) not found in microbial reaction.
 WARNING: Inhibition species "Fe+++ not found in microbial reaction.
 WARNING: Inhibition species "H+ not found in microbial reaction.
 WARNING: Inhibition species "H+ not found in microbial reaction.
 WARNING: Inhibition species "O2(aq) not found in microbial reaction.

 ! ************************************************************************** !

 Final Basis

 Primary Species:
  DOM1   (redox species)
    Charge:   0.00
    Molar Mass:  180.1566 [g/mol]
    Debye-Huckel a0:    3.0000 [Angstrom]

  O2(aq)   (redox species)
    Charge:   0.00
    Molar Mass:   31.9988 [g/mol]
    Debye-Huckel a0:    3.0000 [Angstrom]

  HCO3-   (redox species)
    Charge:  -1.00
    Molar Mass:   61.0171 [g/mol]
    Debye-Huckel a0:    4.0000 [Angstrom]

  H+   (redox species)
    Charge:   1.00
    Molar Mass:    1.0079 [g/mol]
    Debye-Huckel a0:    9.0000 [Angstrom]

  Acetate-   (redox species)
    Charge:  -1.00
    Molar Mass:   59.0446 [g/mol]
    Debye-Huckel a0:    4.5000 [Angstrom]

  H2(aq)   (redox species)
    Charge:   0.00
    Molar Mass:    2.0159 [g/mol]
    Debye-Huckel a0:    3.0000 [Angstrom]

  Tracer   (redox species)
    Charge:   0.00
    Molar Mass:    0.0000 [g/mol]
    Debye-Huckel a0:    0.0000 [Angstrom]

  Fe++   (redox species)
    Charge:   2.00
    Molar Mass:   55.8470 [g/mol]
    Debye-Huckel a0:    6.0000 [Angstrom]

  Fe+++   (redox species)
    Charge:   3.00
    Molar Mass:   55.8470 [g/mol]
    Debye-Huckel a0:    9.0000 [Angstrom]

  CH4(aq)   (redox species)
    Charge:   0.00
    Molar Mass:    0.0000 [g/mol]
    Debye-Huckel a0:    3.0000 [Angstrom]


 Secondary Species:
  OH-
    Charge:  -1.00
    Molar Mass:   17.0073 [g/mol]
    Debye-Huckel a0:    3.5000 [Angstrom]
    Equilibrium Aqueous Reaction: 
        -1.0000  OH-                             
         1.0000  H2O                             
        -1.0000  H+                              
      logK:    14.9398    13.9951    13.0272    12.2551    11.6308    11.2836    11.1675    11.3002

  CO2(aq)
    Charge:   0.00
    Molar Mass:   44.0098 [g/mol]
    Debye-Huckel a0:    3.0000 [Angstrom]
    Equilibrium Aqueous Reaction: 
        -1.0000  CO2(aq)                         
        -1.0000  H2O                             
         1.0000  HCO3-                           
         1.0000  H+                              
      logK:    -6.5804    -6.3447    -6.2684    -6.3882    -6.7235    -7.1969    -7.7868    -8.5280


 Gas Components:
  CO2(g)
    Molar Mass:   44.0098 [g/mol]
    Gas Reaction: 
        -1.0000  CO2(g)                          
        -1.0000  H2O                             
         1.0000  HCO3-                           
         1.0000  H+                              
      logK:    -7.6765    -7.8136    -8.0527    -8.3574    -8.7692    -9.2165    -9.7202   -10.3393

  O2(g)
    Molar Mass:   31.9988 [g/mol]
    Gas Reaction: 
        -1.0000  O2(g)                           
         1.0000  O2(aq)                          
      logK:    -2.6567    -2.8983    -3.0633    -3.1076    -3.0354    -2.8742    -2.6488    -2.3537


 Minerals:
  SOM
    Molar Mass:  180.1566 [g/mol]
    Molar Volume:  1.0000E-04 [m^3/mol]
    Mineral Reaction: 
        -1.0000  SOM                             
         1.0000  DOM1                            
      logK:   100.0000   100.0000   100.0000   100.0000   100.0000   100.0000   100.0000   100.0000

  Fe(OH)3
    Molar Mass:  106.8690 [g/mol]
    Molar Volume:  3.4360E-05 [m^3/mol]
    Mineral Reaction: 
        -1.0000  Fe(OH)3                         
         3.0000  H2O                             
        -3.0000  H+                              
         1.0000  Fe+++                           
      logK:     6.9971     5.6556     4.1038     2.6878     1.2773     0.1146    -0.9130    -1.8839


 Surface Complexation Reactions: None

   Surface Complexes: None

 Ion Exchange Reactions: None

 ! ************************************************************************** !

--------------------------------------------------------------------------------

    10  Primary Species

              DOM1                  O2(aq)                HCO3-               
              H+                    Acetate-              H2(aq)              
              Tracer                Fe++                  Fe+++               
              CH4(aq)             

     2  Secondary Complex Species

              OH-                   CO2(aq)             

     0  Active Gas Species



     2  Passive Gas Species

              CO2(g)                O2(g)               

     2  Reference Minerals

              SOM                   Fe(OH)3             

     2  Kinetic Mineral Reactions

              SOM                   Fe(OH)3             

     0  Ion Exchange Reactions

     0  Ion Exchange Cations
--------------------------------------------------------------------------------
Domain Bounds (x y z):
    0.0000000000E+00  0.0000000000E+00  0.0000000000E+00
    6.0000000000E+00  1.0000000000E+00  1.0000000000E+00
 Extent of Gridded Domain
  X: 0.0000000000000000 - 6.0000000000000000
  Y: 0.0000000000000000 - 1.0000000000000000
  Z: 0.0000000000000000 - 1.0000000000000000

  Setting up TRAN Realization
  Finished setting up TRAN Realization

=+=+=+=+=+=+=+=+=+=+=+=+=+=+=+=+=+=+=+=+=+=+=+=+=+=+=+=+=+=+=+=+=+=+=+=+=+=+=+=+

  Initial Condition

--------------------------------------------------------------------------------
     Transport Condition:   initial
                  Region:   all
--------------------------------------------------------------------------------

  Transport Condition: initial

  Constraint: oc_rich
  ----------------------------------------------------------------------------
        iterations:     9
                pH:   6.0000
                pe:  13.1061
                Eh:   0.7753
    ionic strength:   7.4369E-04 [mol/L]
    charge balance:   7.3468E-04
          pressure:   1.0132E+05 [Pa]
       temperature:    25.00 [C]
       density H2O:  1000.00 [kg/m^3]
 ln / activity H2O:   0.0000E+00  1.0000E+00    [---]
 mole fraction H2O:   9.9999E-01    [---]
 mass fraction H2O:   9.9998E-01    [---]
  ----------------------------------------------------------------------------

  primary                   free        total
  species                   molal       molal       act coef     constraint
  ----------------------------------------------------------------------------
  DOM1                      1.0000E-10  1.0000E-10  1.0000E+00    total aq
  O2(aq)                    1.0000E-10  1.0000E-10  1.0000E+00    total aq
  HCO3-                     6.3371E-06  1.9925E-05  9.6954E-01    CO2(g)
  H+                        1.0301E-06  1.4608E-05  9.7079E-01    pH
  Acetate-                  1.0000E-10  1.0000E-10  9.6967E-01    total aq
  H2(aq)                    1.0000E-10  1.0000E-10  1.0000E+00    total aq
  Tracer                    1.0000E-10  1.0000E-10  1.0000E+00    total aq
  Fe++                      3.7000E-04  3.7000E-04  8.8531E-01    total aq
  Fe+++                     5.9117E-13  5.9117E-13  7.6540E-01    Fe(OH)3
  CH4(aq)                   1.0000E-10  1.0000E-10  1.0000E+00    total aq

  complex                   molality    act coef        logK
  ----------------------------------------------------------------------------
  CO2(aq)                   1.3588E-05  1.0000E+00   -6.3447E+00
  OH-                       1.0433E-08  9.6941E-01    1.3995E+01

  mineral                             log SI       Affinity     log K
                                                   [kJ/mol]
  ----------------------------------------------------------------------------
  Fe(OH)3                               0.0000     -0.0000    5.6556E+00
  SOM                                -110.0000 627880.8476    1.0000E+02

  gas              par pres [bars]  conc [mol/m^3]  log K
  ----------------------------------------------------------------------------
  CO2(g)           4.0000E-04       1.6136E-02      -7.8136E+00
  O2(g)            7.9122E-08       3.1918E-06      -2.8983E+00


--------------------------------------------------------------------------------

=+=+=+=+=+=+=+=+=+=+=+=+=+=+=+=+=+=+=+=+=+=+=+=+=+=+=+=+=+=+=+=+=+=+=+=+=+=+=+=+

  Boundary Condition

--------------------------------------------------------------------------------
     Transport Condition:   initial
                  Region:   east
--------------------------------------------------------------------------------

  Transport Condition: initial

  Constraint: oc_rich
  ----------------------------------------------------------------------------
        iterations:     9
                pH:   6.0000
                pe:  13.1061
                Eh:   0.7753
    ionic strength:   7.4369E-04 [mol/L]
    charge balance:   7.3468E-04
          pressure:   1.0132E+05 [Pa]
       temperature:    25.00 [C]
       density H2O:  1000.00 [kg/m^3]
 ln / activity H2O:   0.0000E+00  1.0000E+00    [---]
 mole fraction H2O:   9.9999E-01    [---]
 mass fraction H2O:   9.9998E-01    [---]
  ----------------------------------------------------------------------------

  primary                   free        total
  species                   molal       molal       act coef     constraint
  ----------------------------------------------------------------------------
  DOM1                      1.0000E-10  1.0000E-10  1.0000E+00    total aq
  O2(aq)                    1.0000E-10  1.0000E-10  1.0000E+00    total aq
  HCO3-                     6.3371E-06  1.9925E-05  9.6954E-01    CO2(g)
  H+                        1.0301E-06  1.4608E-05  9.7079E-01    pH
  Acetate-                  1.0000E-10  1.0000E-10  9.6967E-01    total aq
  H2(aq)                    1.0000E-10  1.0000E-10  1.0000E+00    total aq
  Tracer                    1.0000E-10  1.0000E-10  1.0000E+00    total aq
  Fe++                      3.7000E-04  3.7000E-04  8.8531E-01    total aq
  Fe+++                     5.9117E-13  5.9117E-13  7.6540E-01    Fe(OH)3
  CH4(aq)                   1.0000E-10  1.0000E-10  1.0000E+00    total aq

  complex                   molality    act coef        logK
  ----------------------------------------------------------------------------
  CO2(aq)                   1.3588E-05  1.0000E+00   -6.3447E+00
  OH-                       1.0433E-08  9.6941E-01    1.3995E+01

  mineral                             log SI       Affinity     log K
                                                   [kJ/mol]
  ----------------------------------------------------------------------------
  Fe(OH)3                               0.0000     -0.0000    5.6556E+00
  SOM                                -110.0000 627880.8476    1.0000E+02

  gas              par pres [bars]  conc [mol/m^3]  log K
  ----------------------------------------------------------------------------
  CO2(g)           4.0000E-04       1.6136E-02      -7.8136E+00
  O2(g)            7.9122E-08       3.1918E-06      -2.8983E+00


--------------------------------------------------------------------------------
Default HDF5 method is used in Initialization

 Requested processors and decomposition =     1, npx,y,z=   -1  -1  -1
 Actual decomposition: npx,y,z=    1   1   1

mode = Reactive Transport
  Beginning setup of TRAN SNES
  Finished setting up TRAN SNES

TRAN Time Stepper SNES
      maximum number of steps: 999999
constant time steps threshold: 5
       maximum number of cuts: 16
             reduction factor: 5.000000E-01
        maximum growth factor: 2.000000E+00
                 acceleration: on
       acceleration threshold: 5
       number of ramp entries: 5
                ramp entry #1: 2.0000
                ramp entry #2: 2.0000
                ramp entry #3: 2.0000
                ramp entry #4: 2.0000
                ramp entry #5: 2.0000
                ramp entry #6: 1.8000
                ramp entry #7: 1.6000
                ramp entry #8: 1.4000
                ramp entry #9: 1.2000
               ramp entry #10: 1.0000
               ramp entry #11: 1.0000
               ramp entry #12: 1.0000
               ramp entry #13: 1.0000

TRAN Newton Solver
                         atol: 1.000000E-50
                         rtol: 1.000000E-08
                         stol: 1.000000E-08
                         dtol: 1.000000E+04
                      maxnorm: 1.000000E+20
                    inftolres: -9.990000E+02
                    inftolupd: -9.990000E+02
                 inftolrelupd: -9.990000E+02
                 inftolsclres: -9.990000E+02
                     max iter: 50
                     min iter: 1
                         maxf: 10000
                  matrix type: baij
         precond. matrix type: baij
               inexact newton: off
            print convergence: on
   print detailed convergence: off
          check infinity norm: on

TRAN Linear Solver
                       solver: preonly
               preconditioner: lu
                         atol: 1.000000E-50
                         rtol: 1.000000E-05
                         dtol: 1.000000E+04
            maximum iteration: 10000

 --> creating hdf5 output file: /mnt/d/permafrost_transport_demo/data/pflotran_dir/arctic-subsurface_all.h5
      0.04 Seconds to write HDF5 file.

 Finished Initialization


== REACTIVE TRANSPORT ==========================================================
  0 2r: 2.25E-08 2x: 0.00E+00 2u: 0.00E+00 ir: 2.25E-09 iu: 0.00E+00 rsn:   0
  1 2r: 2.20E-08 2x: 5.95E+02 2u: 1.00E+02 ir: 2.18E-09 iu: 5.00E+00 rsn:   0
  2 2r: 8.99E-08 2x: 5.66E+02 2u: 6.19E+01 ir: 8.89E-09 iu: 5.00E+00 rsn:   0
  3 2r: 2.80E-08 2x: 5.72E+02 2u: 1.24E+01 ir: 2.76E-09 iu: 8.39E-01 rsn:   0
  4 2r: 6.48E-09 2x: 5.75E+02 2u: 8.40E+00 ir: 6.39E-10 iu: 6.28E-01 rsn:   0
  5 2r: 6.71E-10 2x: 5.77E+02 2u: 3.75E+00 ir: 6.58E-11 iu: 3.03E-01 rsn:   0
  6 2r: 9.92E-12 2x: 5.77E+02 2u: 6.30E-01 ir: 9.26E-13 iu: 5.62E-02 rsn:   0
  7 2r: 3.86E-15 2x: 5.77E+02 2u: 1.69E-02 ir: 3.34E-16 iu: 1.64E-03 rsn:   0
  8 2r: 8.82E-19 2x: 5.77E+02 2u: 1.35E-05 ir: 8.37E-20 iu: 1.35E-06 rsn: rtol

 Step      1 Time=  1.14155E-04 Dt=  1.14155E-04 [y] conv_reason: 3
  newton =   8 [       8] linear =     8 [         8] cuts =  0 [   0]
  --> SNES Linear/Non-Linear Iterations = 8 / 8
  --> SNES Residual: 0.882267E-18 0.882267E-18 0.836964E-19
  --> max change:  dcmx=   4.4485E-07  dc/dt=   1.2357E-10 [mol/s]
                  dvfmx=   1.3499E-08 dvf/dt=   3.7497E-12 [1/s]

== REACTIVE TRANSPORT ==========================================================
  0 2r: 1.90E-08 2x: 0.00E+00 2u: 0.00E+00 ir: 1.85E-09 iu: 0.00E+00 rsn:   0
  1 2r: 5.23E-09 2x: 5.69E+02 2u: 1.33E+01 ir: 4.89E-10 iu: 7.25E-01 rsn:   0
  2 2r: 2.40E-10 2x: 5.71E+02 2u: 2.94E+00 ir: 1.81E-11 iu: 1.64E-01 rsn:   0
  3 2r: 1.29E-12 2x: 5.71E+02 2u: 2.62E-01 ir: 1.03E-13 iu: 1.51E-02 rsn:   0
  4 2r: 7.35E-17 2x: 5.71E+02 2u: 1.98E-03 ir: 6.04E-18 iu: 1.15E-04 rsn: rtol

 Step      2 Time=  1.71233E-04 Dt=  5.70776E-05 [y] conv_reason: 3
  newton =   4 [      12] linear =     4 [        12] cuts =  0 [   0]
  --> SNES Linear/Non-Linear Iterations = 4 / 4
  --> SNES Residual: 0.734926E-16 0.734926E-16 0.604195E-17
  --> max change:  dcmx=   2.0096E-07  dc/dt=   1.1164E-10 [mol/s]
                  dvfmx=   6.7495E-09 dvf/dt=   3.7497E-12 [1/s]

== REACTIVE TRANSPORT ==========================================================
  0 2r: 1.79E-08 2x: 0.00E+00 2u: 0.00E+00 ir: 1.67E-09 iu: 0.00E+00 rsn:   0
  1 2r: 8.29E-09 2x: 5.58E+02 2u: 2.28E+01 ir: 5.30E-10 iu: 1.27E+00 rsn:   0
  2 2r: 1.16E-09 2x: 5.61E+02 2u: 6.36E+00 ir: 9.25E-11 iu: 3.63E-01 rsn:   0
  3 2r: 4.76E-11 2x: 5.62E+02 2u: 1.46E+00 ir: 3.89E-12 iu: 8.42E-02 rsn:   0
  4 2r: 8.90E-14 2x: 5.62E+02 2u: 6.47E-02 ir: 7.29E-15 iu: 3.75E-03 rsn:   0
  5 2r: 5.20E-19 2x: 5.62E+02 2u: 1.21E-04 ir: 3.94E-20 iu: 7.03E-06 rsn: rtol

 Step      3 Time=  2.85388E-04 Dt=  1.14155E-04 [y] conv_reason: 3
  newton =   5 [      17] linear =     5 [        17] cuts =  0 [   0]
  --> SNES Linear/Non-Linear Iterations = 5 / 5
  --> SNES Residual: 0.519573E-18 0.519573E-18 0.394301E-19
  --> max change:  dcmx=   3.3121E-07  dc/dt=   9.2004E-11 [mol/s]
                  dvfmx=   1.3499E-08 dvf/dt=   3.7497E-12 [1/s]

== REACTIVE TRANSPORT ==========================================================
  0 2r: 1.67E-08 2x: 0.00E+00 2u: 0.00E+00 ir: 1.38E-09 iu: 0.00E+00 rsn:   0
  1 2r: 1.58E-08 2x: 5.42E+02 2u: 3.14E+01 ir: 1.25E-09 iu: 1.65E+00 rsn:   0
  2 2r: 3.37E-09 2x: 5.48E+02 2u: 9.15E+00 ir: 2.75E-10 iu: 4.91E-01 rsn:   0
  3 2r: 2.71E-10 2x: 5.49E+02 2u: 2.99E+00 ir: 2.22E-11 iu: 1.68E-01 rsn:   0
  4 2r: 2.14E-12 2x: 5.50E+02 2u: 2.76E-01 ir: 1.75E-13 iu: 1.59E-02 rsn:   0
  5 2r: 1.36E-16 2x: 5.50E+02 2u: 2.20E-03 ir: 1.12E-17 iu: 1.28E-04 rsn: rtol

 Step      4 Time=  5.13699E-04 Dt=  2.28311E-04 [y] conv_reason: 3
  newton =   5 [      22] linear =     5 [        22] cuts =  0 [   0]
  --> SNES Linear/Non-Linear Iterations = 5 / 5
  --> SNES Residual: 0.136432E-15 0.136432E-15 0.111747E-16
  --> max change:  dcmx=   4.6457E-07  dc/dt=   6.4523E-11 [mol/s]
                  dvfmx=   2.6998E-08 dvf/dt=   3.7497E-12 [1/s]

== REACTIVE TRANSPORT ==========================================================
  0 2r: 1.67E-08 2x: 0.00E+00 2u: 0.00E+00 ir: 9.68E-10 iu: 0.00E+00 rsn:   0
  1 2r: 2.18E-08 2x: 5.23E+02 2u: 4.21E+01 ir: 1.78E-09 iu: 2.99E+00 rsn:   0
  2 2r: 4.77E-09 2x: 5.30E+02 2u: 1.18E+01 ir: 3.89E-10 iu: 7.94E-01 rsn:   0
  3 2r: 3.96E-10 2x: 5.33E+02 2u: 6.23E+00 ir: 3.23E-11 iu: 5.44E-01 rsn:   0
  4 2r: 3.42E-12 2x: 5.34E+02 2u: 2.16E+00 ir: 2.78E-13 iu: 2.14E-01 rsn:   0
  5 2r: 4.97E-15 2x: 5.34E+02 2u: 2.65E-01 ir: 4.96E-16 iu: 2.64E-02 rsn:   0
  6 2r: 1.08E-18 2x: 5.34E+02 2u: 3.56E-03 ir: 8.83E-20 iu: 3.56E-04 rsn: rtol

 Step      5 Time=  9.70320E-04 Dt=  4.56621E-04 [y] conv_reason: 3
  newton =   6 [      28] linear =     6 [        28] cuts =  0 [   0]
  --> SNES Linear/Non-Linear Iterations = 6 / 6
  --> SNES Residual: 0.108230E-17 0.108230E-17 0.882531E-19
  --> max change:  dcmx=   1.1046E-06  dc/dt=   7.6711E-11 [mol/s]
                  dvfmx=   5.3996E-08 dvf/dt=   3.7497E-12 [1/s]

== REACTIVE TRANSPORT ==========================================================
  0 2r: 1.82E-08 2x: 0.00E+00 2u: 0.00E+00 ir: 1.15E-09 iu: 0.00E+00 rsn:   0
  1 2r: 2.91E-09 2x: 5.29E+02 2u: 8.30E+00 ir: 2.36E-10 iu: 5.17E-01 rsn:   0
  2 2r: 6.74E-11 2x: 5.30E+02 2u: 1.24E+00 ir: 5.51E-12 iu: 9.35E-02 rsn:   0
  3 2r: 3.77E-14 2x: 5.30E+02 2u: 5.03E-02 ir: 3.08E-15 iu: 4.65E-03 rsn:   0
  4 2r: 3.12E-19 2x: 5.30E+02 2u: 1.09E-04 ir: 2.96E-20 iu: 1.08E-05 rsn: rtol

 Step      6 Time=  1.19863E-03 Dt=  2.28311E-04 [y] conv_reason: 3
  newton =   4 [      32] linear =     4 [        32] cuts =  0 [   0]
  --> SNES Linear/Non-Linear Iterations = 4 / 4
  --> SNES Residual: 0.312448E-18 0.312448E-18 0.296180E-19
  --> max change:  dcmx=   6.0182E-07  dc/dt=   8.3587E-11 [mol/s]
                  dvfmx=   2.6998E-08 dvf/dt=   3.7497E-12 [1/s]

== REACTIVE TRANSPORT ==========================================================
  0 2r: 2.01E-08 2x: 0.00E+00 2u: 0.00E+00 ir: 1.25E-09 iu: 0.00E+00 rsn:   0
  1 2r: 5.62E-09 2x: 5.20E+02 2u: 1.56E+01 ir: 4.54E-10 iu: 1.10E+00 rsn:   0
  2 2r: 2.91E-10 2x: 5.22E+02 2u: 3.50E+00 ir: 2.37E-11 iu: 2.95E-01 rsn:   0
  3 2r: 8.95E-13 2x: 5.22E+02 2u: 5.43E-01 ir: 7.29E-14 iu: 5.32E-02 rsn:   0
  4 2r: 4.89E-17 2x: 5.22E+02 2u: 1.47E-02 ir: 4.82E-18 iu: 1.47E-03 rsn: rtol

 Step      7 Time=  1.65525E-03 Dt=  4.56621E-04 [y] conv_reason: 3
  newton =   4 [      36] linear =     4 [        36] cuts =  0 [   0]
  --> SNES Linear/Non-Linear Iterations = 4 / 4
  --> SNES Residual: 0.489144E-16 0.489144E-16 0.481628E-17
  --> max change:  dcmx=   1.3100E-06  dc/dt=   9.0976E-11 [mol/s]
                  dvfmx=   5.3996E-08 dvf/dt=   3.7497E-12 [1/s]

== REACTIVE TRANSPORT ==========================================================
  0 2r: 2.04E-08 2x: 0.00E+00 2u: 0.00E+00 ir: 1.36E-09 iu: 0.00E+00 rsn:   0
  1 2r: 8.91E-09 2x: 5.06E+02 2u: 2.58E+01 ir: 7.15E-10 iu: 1.94E+00 rsn:   0
  2 2r: 7.27E-10 2x: 5.10E+02 2u: 6.55E+00 ir: 5.94E-11 iu: 5.73E-01 rsn:   0
  3 2r: 6.69E-12 2x: 5.11E+02 2u: 2.45E+00 ir: 5.11E-13 iu: 2.43E-01 rsn:   0
  4 2r: 4.11E-14 2x: 5.11E+02 2u: 3.48E-01 ir: 4.11E-15 iu: 3.48E-02 rsn:   0
  5 2r: 1.27E-17 2x: 5.11E+02 2u: 6.18E-03 ir: 1.27E-18 iu: 6.18E-04 rsn: rtol

 Step      8 Time=  2.56849E-03 Dt=  9.13242E-04 [y] conv_reason: 3
  newton =   5 [      41] linear =     5 [        41] cuts =  0 [   0]
  --> SNES Linear/Non-Linear Iterations = 5 / 5
  --> SNES Residual: 0.127088E-16 0.127088E-16 0.127033E-17
  --> max change:  dcmx=   2.7759E-06  dc/dt=   9.6387E-11 [mol/s]
                  dvfmx=   1.0799E-07 dvf/dt=   3.7497E-12 [1/s]

== REACTIVE TRANSPORT ==========================================================
  0 2r: 1.97E-08 2x: 0.00E+00 2u: 0.00E+00 ir: 1.45E-09 iu: 0.00E+00 rsn:   0
  1 2r: 1.14E-08 2x: 4.91E+02 2u: 3.57E+01 ir: 9.07E-10 iu: 2.59E+00 rsn:   0
  2 2r: 1.14E-09 2x: 4.97E+02 2u: 8.92E+00 ir: 9.30E-11 iu: 7.36E-01 rsn:   0
  3 2r: 2.45E-11 2x: 5.00E+02 2u: 4.56E+00 ir: 1.85E-12 iu: 4.50E-01 rsn:   0
  4 2r: 1.22E-12 2x: 5.00E+02 2u: 1.37E+00 ir: 1.22E-13 iu: 1.37E-01 rsn:   0
  5 2r: 6.26E-15 2x: 5.00E+02 2u: 1.03E-01 ir: 6.26E-16 iu: 1.03E-02 rsn:   0
  6 2r: 5.25E-19 2x: 5.00E+02 2u: 5.36E-04 ir: 4.76E-20 iu: 5.36E-05 rsn: rtol

 Step      9 Time=  4.39498E-03 Dt=  1.82648E-03 [y] conv_reason: 3
  newton =   6 [      47] linear =     6 [        47] cuts =  0 [   0]
  --> SNES Linear/Non-Linear Iterations = 6 / 6
  --> SNES Residual: 0.525255E-18 0.525255E-18 0.476394E-19
  --> max change:  dcmx=   5.6910E-06  dc/dt=   9.8802E-11 [mol/s]
                  dvfmx=   2.1598E-07 dvf/dt=   3.7497E-12 [1/s]

== REACTIVE TRANSPORT ==========================================================
  0 2r: 3.61E-08 2x: 0.00E+00 2u: 0.00E+00 ir: 2.70E-09 iu: 0.00E+00 rsn:   0
  1 2r: 2.45E-09 2x: 4.97E+02 2u: 9.95E+00 ir: 1.91E-10 iu: 5.43E-01 rsn:   0
  2 2r: 2.78E-11 2x: 4.98E+02 2u: 1.85E+00 ir: 2.25E-12 iu: 1.58E-01 rsn:   0
  3 2r: 4.19E-15 2x: 4.98E+02 2u: 1.55E-01 ir: 3.20E-16 iu: 1.52E-02 rsn:   0
  4 2r: 1.06E-18 2x: 4.98E+02 2u: 1.18E-03 ir: 1.56E-19 iu: 1.18E-04 rsn: rtol

 Step     10 Time=  5.30822E-03 Dt=  9.13242E-04 [y] conv_reason: 3
  newton =   4 [      51] linear =     4 [        51] cuts =  0 [   0]
  --> SNES Linear/Non-Linear Iterations = 4 / 4
  --> SNES Residual: 0.106395E-17 0.106395E-17 0.155544E-18
  --> max change:  dcmx=   2.8584E-06  dc/dt=   9.9250E-11 [mol/s]
                  dvfmx=   1.0799E-07 dvf/dt=   3.7497E-12 [1/s]

== REACTIVE TRANSPORT ==========================================================
  0 2r: 2.60E-08 2x: 0.00E+00 2u: 0.00E+00 ir: 1.49E-09 iu: 0.00E+00 rsn:   0
  1 2r: 4.15E-09 2x: 4.94E+02 2u: 1.47E+01 ir: 3.28E-10 iu: 8.26E-01 rsn:   0
  2 2r: 1.16E-10 2x: 4.98E+02 2u: 4.23E+00 ir: 9.14E-12 iu: 3.48E-01 rsn:   0
  3 2r: 1.25E-13 2x: 4.98E+02 2u: 9.24E-01 ir: 7.65E-15 iu: 8.96E-02 rsn:   0
  4 2r: 9.56E-18 2x: 4.98E+02 2u: 4.34E-02 ir: 9.54E-19 iu: 4.34E-03 rsn: rtol

 Step     11 Time=  7.13470E-03 Dt=  1.82648E-03 [y] conv_reason: 3
  newton =   4 [      55] linear =     4 [        55] cuts =  0 [   0]
  --> SNES Linear/Non-Linear Iterations = 4 / 4
  --> SNES Residual: 0.955593E-17 0.955593E-17 0.954000E-18
  --> max change:  dcmx=   5.7354E-06  dc/dt=   9.9572E-11 [mol/s]
                  dvfmx=   2.1598E-07 dvf/dt=   3.7497E-12 [1/s]

== REACTIVE TRANSPORT ==========================================================
  0 2r: 6.71E-08 2x: 0.00E+00 2u: 0.00E+00 ir: 5.96E-09 iu: 0.00E+00 rsn:   0
  1 2r: 6.49E-09 2x: 4.96E+02 2u: 2.02E+01 ir: 5.09E-10 iu: 1.35E+00 rsn:   0
  2 2r: 3.44E-10 2x: 5.01E+02 2u: 7.15E+00 ir: 2.63E-11 iu: 5.69E-01 rsn:   0
  3 2r: 2.19E-12 2x: 5.03E+02 2u: 3.22E+00 ir: 1.84E-13 iu: 3.07E-01 rsn:   0
  4 2r: 4.78E-15 2x: 5.04E+02 2u: 5.94E-01 ir: 4.78E-16 iu: 5.91E-02 rsn:   0
  5 2r: 1.46E-19 2x: 5.04E+02 2u: 1.82E-02 ir: 7.24E-20 iu: 1.82E-03 rsn: rtol

 Step     12 Time=  1.07877E-02 Dt=  3.65297E-03 [y] conv_reason: 3
  newton =   5 [      60] linear =     5 [        60] cuts =  0 [   0]
  --> SNES Linear/Non-Linear Iterations = 5 / 5
  --> SNES Residual: 0.145798E-18 0.145798E-18 0.723624E-19
  --> max change:  dcmx=   1.1501E-05  dc/dt=   9.9837E-11 [mol/s]
                  dvfmx=   4.3197E-07 dvf/dt=   3.7497E-12 [1/s]

== REACTIVE TRANSPORT ==========================================================
  0 2r: 1.76E-07 2x: 0.00E+00 2u: 0.00E+00 ir: 1.65E-08 iu: 0.00E+00 rsn:   0
  1 2r: 9.39E-09 2x: 5.05E+02 2u: 2.91E+01 ir: 7.04E-10 iu: 1.98E+00 rsn:   0
  2 2r: 7.34E-10 2x: 5.11E+02 2u: 1.01E+01 ir: 5.35E-11 iu: 7.21E-01 rsn:   0
  3 2r: 2.25E-11 2x: 5.16E+02 2u: 6.63E+00 ir: 2.18E-12 iu: 6.10E-01 rsn:   0
  4 2r: 4.29E-13 2x: 5.17E+02 2u: 2.94E+00 ir: 4.29E-14 iu: 2.91E-01 rsn:   0
  5 2r: 1.75E-16 2x: 5.18E+02 2u: 5.17E-01 ir: 1.75E-17 iu: 5.17E-02 rsn: rtol

 Step     13 Time=  1.80936E-02 Dt=  7.30594E-03 [y] conv_reason: 3
  newton =   5 [      65] linear =     5 [        65] cuts =  0 [   0]
  --> SNES Linear/Non-Linear Iterations = 5 / 5
  --> SNES Residual: 0.175249E-15 0.175249E-15 0.175249E-16
  --> max change:  dcmx=   2.3027E-05  dc/dt=   9.9942E-11 [mol/s]
                  dvfmx=   8.6394E-07 dvf/dt=   3.7497E-12 [1/s]

== REACTIVE TRANSPORT ==========================================================
  0 2r: 3.82E-07 2x: 0.00E+00 2u: 0.00E+00 ir: 3.62E-08 iu: 0.00E+00 rsn:   0
  1 2r: 1.20E-08 2x: 5.21E+02 2u: 3.52E+01 ir: 8.70E-10 iu: 2.42E+00 rsn:   0
  2 2r: 1.23E-09 2x: 5.28E+02 2u: 1.17E+01 ir: 8.20E-11 iu: 7.86E-01 rsn:   0
  3 2r: 9.98E-11 2x: 5.34E+02 2u: 9.17E+00 ir: 9.88E-12 iu: 8.28E-01 rsn:   0
  4 2r: 4.78E-12 2x: 5.39E+02 2u: 6.43E+00 ir: 4.78E-13 iu: 6.35E-01 rsn:   0
  5 2r: 1.27E-14 2x: 5.41E+02 2u: 3.12E+00 ir: 1.27E-15 iu: 3.12E-01 rsn:   0
  6 2r: 2.49E-19 2x: 5.41E+02 2u: 6.00E-01 ir: 4.29E-20 iu: 6.00E-02 rsn: rtol

 Step     14 Time=  3.27055E-02 Dt=  1.46119E-02 [y] conv_reason: 3
  newton =   6 [      71] linear =     6 [        71] cuts =  0 [   0]
  --> SNES Linear/Non-Linear Iterations = 6 / 6
  --> SNES Residual: 0.248975E-18 0.248975E-18 0.428597E-19
  --> max change:  dcmx=   4.6048E-05  dc/dt=   9.9930E-11 [mol/s]
                  dvfmx=   1.7279E-06 dvf/dt=   3.7497E-12 [1/s]

== REACTIVE TRANSPORT ==========================================================
  0 2r: 7.49E-07 2x: 0.00E+00 2u: 0.00E+00 ir: 7.09E-08 iu: 0.00E+00 rsn:   0
  1 2r: 2.67E-09 2x: 5.48E+02 2u: 1.34E+01 ir: 1.87E-10 iu: 1.15E+00 rsn:   0
  2 2r: 2.85E-11 2x: 5.54E+02 2u: 9.11E+00 ir: 2.05E-12 iu: 9.07E-01 rsn:   0
  3 2r: 9.09E-15 2x: 5.60E+02 2u: 8.06E+00 ir: 8.37E-16 iu: 8.06E-01 rsn:   0
  4 2r: 1.33E-18 2x: 5.64E+02 2u: 5.66E+00 ir: 1.88E-19 iu: 5.66E-01 rsn: rtol

 Step     15 Time=  4.00114E-02 Dt=  7.30594E-03 [y] conv_reason: 3
  newton =   4 [      75] linear =     4 [        75] cuts =  0 [   0]
  --> SNES Linear/Non-Linear Iterations = 4 / 4
  --> SNES Residual: 0.133360E-17 0.133360E-17 0.188278E-18
  --> max change:  dcmx=   2.3022E-05  dc/dt=   9.9920E-11 [mol/s]
                  dvfmx=   8.6394E-07 dvf/dt=   3.7497E-12 [1/s]

== REACTIVE TRANSPORT ==========================================================
  0 2r: 3.64E-07 2x: 0.00E+00 2u: 0.00E+00 ir: 3.44E-08 iu: 0.00E+00 rsn:   0
  1 2r: 4.57E-09 2x: 5.71E+02 2u: 1.75E+01 ir: 3.24E-10 iu: 1.28E+00 rsn:   0
  2 2r: 1.28E-10 2x: 5.78E+02 2u: 9.56E+00 ir: 8.49E-12 iu: 9.27E-01 rsn:   0
  3 2r: 5.30E-13 2x: 5.85E+02 2u: 9.11E+00 ir: 5.22E-14 iu: 9.11E-01 rsn:   0
  4 2r: 5.96E-17 2x: 5.91E+02 2u: 7.80E+00 ir: 5.96E-18 iu: 7.80E-01 rsn: rtol

 Step     16 Time=  5.46233E-02 Dt=  1.46119E-02 [y] conv_reason: 3
  newton =   4 [      79] linear =     4 [        79] cuts =  0 [   0]
  --> SNES Linear/Non-Linear Iterations = 4 / 4
  --> SNES Residual: 0.595748E-16 0.595748E-16 0.595730E-17
  --> max change:  dcmx=   4.6043E-05  dc/dt=   9.9919E-11 [mol/s]
                  dvfmx=   1.7279E-06 dvf/dt=   3.7497E-12 [1/s]

== REACTIVE TRANSPORT ==========================================================
  0 2r: 7.08E-07 2x: 0.00E+00 2u: 0.00E+00 ir: 6.70E-08 iu: 0.00E+00 rsn:   0
  1 2r: 7.42E-09 2x: 5.98E+02 2u: 2.30E+01 ir: 5.10E-10 iu: 1.40E+00 rsn:   0
  2 2r: 4.50E-10 2x: 6.05E+02 2u: 1.02E+01 ir: 2.52E-11 iu: 9.18E-01 rsn:   0
  3 2r: 1.12E-11 2x: 6.13E+02 2u: 9.63E+00 ir: 1.11E-12 iu: 9.58E-01 rsn:   0
  4 2r: 2.36E-14 2x: 6.20E+02 2u: 8.99E+00 ir: 2.36E-15 iu: 8.99E-01 rsn:   0
  5 2r: 3.37E-19 2x: 6.26E+02 2u: 7.51E+00 ir: 3.03E-20 iu: 7.51E-01 rsn: rtol

 Step     17 Time=  8.38470E-02 Dt=  2.92237E-02 [y] conv_reason: 3
  newton =   5 [      84] linear =     5 [        84] cuts =  0 [   0]
  --> SNES Linear/Non-Linear Iterations = 5 / 5
  --> SNES Residual: 0.336513E-18 0.336513E-18 0.302963E-19
  --> max change:  dcmx=   9.2089E-05  dc/dt=   9.9923E-11 [mol/s]
                  dvfmx=   3.4558E-06 dvf/dt=   3.7497E-12 [1/s]

== REACTIVE TRANSPORT ==========================================================
  0 2r: 1.33E-06 2x: 0.00E+00 2u: 0.00E+00 ir: 1.27E-07 iu: 0.00E+00 rsn:   0
  1 2r: 1.12E-08 2x: 6.33E+02 2u: 2.77E+01 ir: 7.12E-10 iu: 1.71E+00 rsn:   0
  2 2r: 1.18E-09 2x: 6.40E+02 2u: 1.01E+01 ir: 7.95E-11 iu: 7.89E-01 rsn:   0
  3 2r: 7.12E-11 2x: 6.46E+02 2u: 7.20E+00 ir: 7.08E-12 iu: 6.95E-01 rsn:   0
  4 2r: 6.94E-13 2x: 6.49E+02 2u: 3.96E+00 ir: 6.94E-14 iu: 3.95E-01 rsn:   0
  5 2r: 6.85E-17 2x: 6.50E+02 2u: 1.02E+00 ir: 6.85E-18 iu: 1.02E-01 rsn: rtol

 Step     18 Time=  1.42295E-01 Dt=  5.84475E-02 [y] conv_reason: 3
  newton =   5 [      89] linear =     5 [        89] cuts =  0 [   0]
  --> SNES Linear/Non-Linear Iterations = 5 / 5
  --> SNES Residual: 0.685105E-16 0.685105E-16 0.685103E-17
  --> max change:  dcmx=   1.8419E-04  dc/dt=   9.9930E-11 [mol/s]
                  dvfmx=   6.9115E-06 dvf/dt=   3.7497E-12 [1/s]

== REACTIVE TRANSPORT ==========================================================
  0 2r: 2.40E-06 2x: 0.00E+00 2u: 0.00E+00 ir: 2.27E-07 iu: 0.00E+00 rsn:   0
  1 2r: 1.74E-08 2x: 6.49E+02 2u: 2.49E+01 ir: 9.70E-10 iu: 1.70E+00 rsn:   0
  2 2r: 1.71E-09 2x: 6.50E+02 2u: 6.61E+00 ir: 1.15E-10 iu: 5.11E-01 rsn:   0
  3 2r: 1.03E-10 2x: 6.50E+02 2u: 1.91E+00 ir: 1.02E-11 iu: 1.85E-01 rsn:   0
  4 2r: 9.83E-13 2x: 6.50E+02 2u: 1.95E-01 ir: 9.83E-14 iu: 1.95E-02 rsn:   0
  5 2r: 9.42E-17 2x: 6.50E+02 2u: 1.92E-03 ir: 9.42E-18 iu: 1.92E-04 rsn: rtol

 Step     19 Time=  2.50000E-01 Dt=  1.07705E-01 [y] conv_reason: 3
  newton =   5 [      94] linear =     5 [        94] cuts =  0 [   0]
  --> SNES Linear/Non-Linear Iterations = 5 / 5
  --> SNES Residual: 0.941960E-16 0.941960E-16 0.941958E-17
  --> max change:  dcmx=   3.3941E-04  dc/dt=   9.9927E-11 [mol/s]
                  dvfmx=   1.2736E-05 dvf/dt=   3.7497E-12 [1/s]

 --> appending to hdf5 output file: /mnt/d/permafrost_transport_demo/data/pflotran_dir/arctic-subsurface_all.h5
      0.02 Seconds to write HDF5 file.

== REACTIVE TRANSPORT ==========================================================
  0 2r: 3.76E-06 2x: 0.00E+00 2u: 0.00E+00 ir: 3.57E-07 iu: 0.00E+00 rsn:   0
  1 2r: 3.66E-08 2x: 6.49E+02 2u: 1.39E+01 ir: 3.37E-09 iu: 8.56E-01 rsn:   0
  2 2r: 4.26E-10 2x: 6.49E+02 2u: 2.88E+00 ir: 2.33E-11 iu: 2.13E-01 rsn:   0
  3 2r: 3.19E-12 2x: 6.49E+02 2u: 2.78E-01 ir: 3.05E-13 iu: 2.62E-02 rsn:   0
  4 2r: 5.32E-16 2x: 6.49E+02 2u: 3.50E-03 ir: 5.32E-17 iu: 3.49E-04 rsn: rtol

 Step     20 Time=  3.66895E-01 Dt=  1.16895E-01 [y] conv_reason: 3
  newton =   4 [      98] linear =     4 [        98] cuts =  0 [   0]
  --> SNES Linear/Non-Linear Iterations = 4 / 4
  --> SNES Residual: 0.531922E-15 0.531922E-15 0.531869E-16
  --> max change:  dcmx=   3.6824E-04  dc/dt=   9.9891E-11 [mol/s]
                  dvfmx=   1.3823E-05 dvf/dt=   3.7497E-12 [1/s]

== REACTIVE TRANSPORT ==========================================================
  0 2r: 3.52E-06 2x: 0.00E+00 2u: 0.00E+00 ir: 3.34E-07 iu: 0.00E+00 rsn:   0
  1 2r: 3.22E-08 2x: 6.48E+02 2u: 1.04E+01 ir: 2.98E-09 iu: 6.13E-01 rsn:   0
  2 2r: 2.12E-10 2x: 6.48E+02 2u: 1.77E+00 ir: 1.09E-11 iu: 1.27E-01 rsn:   0
  3 2r: 5.21E-13 2x: 6.48E+02 2u: 9.61E-02 ir: 4.79E-14 iu: 8.77E-03 rsn:   0
  4 2r: 9.28E-18 2x: 6.48E+02 2u: 3.89E-04 ir: 9.26E-19 iu: 3.87E-05 rsn: rtol

 Step     21 Time=  5.00000E-01 Dt=  1.33105E-01 [y] conv_reason: 3
  newton =   4 [     102] linear =     4 [       102] cuts =  0 [   0]
  --> SNES Linear/Non-Linear Iterations = 4 / 4
  --> SNES Residual: 0.928394E-17 0.928394E-17 0.925788E-18
  --> max change:  dcmx=   4.1894E-04  dc/dt=   9.9805E-11 [mol/s]
                  dvfmx=   1.5740E-05 dvf/dt=   3.7497E-12 [1/s]

 --> appending to hdf5 output file: /mnt/d/permafrost_transport_demo/data/pflotran_dir/arctic-subsurface_all.h5
      0.01 Seconds to write HDF5 file.

== REACTIVE TRANSPORT ==========================================================
  0 2r: 3.50E-06 2x: 0.00E+00 2u: 0.00E+00 ir: 3.32E-07 iu: 0.00E+00 rsn:   0
  1 2r: 3.15E-08 2x: 6.47E+02 2u: 1.40E+01 ir: 2.83E-09 iu: 8.37E-01 rsn:   0
  2 2r: 5.71E-10 2x: 6.47E+02 2u: 2.90E+00 ir: 2.99E-11 iu: 2.05E-01 rsn:   0
  3 2r: 3.99E-12 2x: 6.47E+02 2u: 2.70E-01 ir: 3.59E-13 iu: 2.42E-02 rsn:   0
  4 2r: 5.32E-16 2x: 6.47E+02 2u: 2.99E-03 ir: 5.31E-17 iu: 2.96E-04 rsn: rtol

 Step     22 Time=  7.50000E-01 Dt=  2.50000E-01 [y] conv_reason: 3
  newton =   4 [     106] linear =     4 [       106] cuts =  0 [   0]
  --> SNES Linear/Non-Linear Iterations = 4 / 4
  --> SNES Residual: 0.531772E-15 0.531772E-15 0.531215E-16
  --> max change:  dcmx=   7.8450E-04  dc/dt=   9.9505E-11 [mol/s]
                  dvfmx=   2.9563E-05 dvf/dt=   3.7497E-12 [1/s]

 --> appending to hdf5 output file: /mnt/d/permafrost_transport_demo/data/pflotran_dir/arctic-subsurface_all.h5
      0.01 Seconds to write HDF5 file.

== REACTIVE TRANSPORT ==========================================================
  0 2r: 5.47E-06 2x: 0.00E+00 2u: 0.00E+00 ir: 5.19E-07 iu: 0.00E+00 rsn:   0
  1 2r: 8.06E-08 2x: 6.46E+02 2u: 8.80E+00 ir: 7.60E-09 iu: 4.99E-01 rsn:   0
  2 2r: 1.68E-10 2x: 6.46E+02 2u: 1.35E+00 ir: 9.47E-12 iu: 8.99E-02 rsn:   0
  3 2r: 2.11E-13 2x: 6.46E+02 2u: 5.13E-02 ir: 1.66E-14 iu: 4.28E-03 rsn:   0
  4 2r: 9.54E-19 2x: 6.46E+02 2u: 9.46E-05 ir: 7.63E-20 iu: 9.17E-06 rsn: rtol

 Step     23 Time=  1.00000E+00 Dt=  2.50000E-01 [y] conv_reason: 3
  newton =   4 [     110] linear =     4 [       110] cuts =  0 [   0]
  --> SNES Linear/Non-Linear Iterations = 4 / 4
  --> SNES Residual: 0.954246E-18 0.954246E-18 0.762914E-19
  --> max change:  dcmx=   7.8065E-04  dc/dt=   9.9016E-11 [mol/s]
                  dvfmx=   2.9563E-05 dvf/dt=   3.7497E-12 [1/s]

 --> appending to hdf5 output file: /mnt/d/permafrost_transport_demo/data/pflotran_dir/arctic-subsurface_all.h5
      0.01 Seconds to write HDF5 file.

PMCSubsurfaceTransport
 Total Time: 1.0332E-01 seconds

 TRAN TS SNES steps = 23  newton = 110  linear = 110  cuts = 0
 TRAN TS SNES Wasted Linear Iterations = 0
 TRAN TS SNES Wasted Newton Iterations = 0
 TRAN TS SNES time = 0.1 seconds

 Wall Clock Time:  2.0058E-01 [sec]   3.3430E-03 [min]   5.5716E-05 [hr]
