
=================
  PFLOTRAN v5.0
=================

"grid_structured_type" set to default value.
"CHEMISTRY,MICROBIAL_REACTION,RATE_CONSTANT units" set to default value.
"CHEMISTRY,MICROBIAL_REACTION,RATE_CONSTANT units" set to default value.
"CHEMISTRY,MICROBIAL_REACTION,RATE_CONSTANT units" set to default value.
"CHEMISTRY,MICROBIAL_REACTION,RATE_CONSTANT units" set to default value.
pflotran card:: NUMERICAL_METHODS
pflotran card:: SPECIFIED_VELOCITY
pflotran card:: CHEMISTRY
"SOMPREFACTOR RATE UNITS" set to default value.
pflotran card:: GRID
pflotran card:: FLUID_PROPERTY
"FLUID_PROPERTY,diffusion_coefficient units" set to default value.
pflotran card:: MATERIAL_PROPERTY
  Name :: peat
pflotran card:: OUTPUT
"OUTPUT,FORMAT,HDF5,# FILES" set to default value.
pflotran card:: TIME
pflotran card:: REGION
all
pflotran card:: REGION
west
pflotran card:: REGION
east
pflotran card:: TRANSPORT_CONDITION
initial
pflotran card:: CONSTRAINT
oc_rich
Constraint Species: DOM1
Constraint Species: O2(aq)
Constraint Species: HCO3-
Constraint Species: H+
Constraint Species: Acetate-
Constraint Species: H2(aq)
Constraint Species: Tracer
Constraint Minerals: SOM
"SOM SPECIFIC SURFACE_AREA UNITS" set to default value.
pflotran card:: CONSTRAINT
oc_poor
Constraint Species: DOM1
Constraint Species: O2(aq)
Constraint Species: HCO3-
Constraint Species: H+
Constraint Species: Acetate-
Constraint Species: H2(aq)
Constraint Species: Tracer
pflotran card:: INITIAL_CONDITION
"Initial Condition name" set to default value.
pflotran card:: BOUNDARY_CONDITION
pflotran card:: STRATA
pflotran card:: END_SUBSURFACE

 ! ************************************************************************** !

 Initial Basis

 Primary Species:
  DOM1   (redox species)
    Charge:   0.00
    Molar Mass:  180.1566 [g/mol]
    Debye-Huckel a0:    3.0000 [Angstrom]

  O2(aq)   (redox species)
    Charge:   0.00
    Molar Mass:   31.9988 [g/mol]
    Debye-Huckel a0:    3.0000 [Angstrom]

  HCO3-   (redox species)
    Charge:  -1.00
    Molar Mass:   61.0171 [g/mol]
    Debye-Huckel a0:    4.0000 [Angstrom]

  H+   (redox species)
    Charge:   1.00
    Molar Mass:    1.0079 [g/mol]
    Debye-Huckel a0:    9.0000 [Angstrom]

  Acetate-   (redox species)
    Charge:  -1.00
    Molar Mass:   59.0446 [g/mol]
    Debye-Huckel a0:    4.5000 [Angstrom]
    Equilibrium Aqueous Reaction: 
        -1.0000  Acetate-                        
        -1.0000  H+                              
         1.0000  Acetic_acid(aq)                 
      logK:     4.7812     4.7572     4.8080     4.9438     5.1953     5.5241     5.9420     6.5094

  H2(aq)   (redox species)
    Charge:   0.00
    Molar Mass:    2.0159 [g/mol]
    Debye-Huckel a0:    3.0000 [Angstrom]
    Equilibrium Aqueous Reaction: 
        -1.0000  H2(aq)                          
        -0.5000  O2(g)                           
         1.0000  H2O                             
      logK:    49.1500    44.6575    39.4400    34.6224    29.8242    25.9892    22.8409    20.1881

  Tracer   (redox species)
    Charge:   0.00
    Molar Mass:    0.0000 [g/mol]
    Debye-Huckel a0:    0.0000 [Angstrom]


 Secondary Species:
  OH-
    Charge:  -1.00
    Molar Mass:   17.0073 [g/mol]
    Debye-Huckel a0:    3.5000 [Angstrom]
    Equilibrium Aqueous Reaction: 
        -1.0000  OH-                             
        -1.0000  H+                              
         1.0000  H2O                             
      logK:    14.9398    13.9951    13.0272    12.2551    11.6308    11.2836    11.1675    11.3002

  CO2(aq)
    Charge:   0.00
    Molar Mass:   44.0098 [g/mol]
    Debye-Huckel a0:    3.0000 [Angstrom]
    Equilibrium Aqueous Reaction: 
        -1.0000  CO2(aq)                         
        -1.0000  H2O                             
         1.0000  H+                              
         1.0000  HCO3-                           
      logK:    -6.5804    -6.3447    -6.2684    -6.3882    -6.7235    -7.1969    -7.7868    -8.5280


 Gas Components:
  CO2(g)
    Molar Mass:   44.0098 [g/mol]
    Gas Reaction: 
        -1.0000  CO2(g)                          
        -1.0000  H2O                             
         1.0000  H+                              
         1.0000  HCO3-                           
      logK:    -7.6765    -7.8136    -8.0527    -8.3574    -8.7692    -9.2165    -9.7202   -10.3393

  O2(g)
    Molar Mass:   31.9988 [g/mol]
    Gas Reaction: 
        -1.0000  O2(g)                           
         1.0000  O2(aq)                          
      logK:    -2.6567    -2.8983    -3.0633    -3.1076    -3.0354    -2.8742    -2.6488    -2.3537


 Minerals:
  SOM
    Molar Mass:  180.1566 [g/mol]
    Molar Volume:  1.0000E-04 [m^3/mol]
    Mineral Reaction: 
        -1.0000  SOM                             
         1.0000  DOM1                            
      logK:   100.0000   100.0000   100.0000   100.0000   100.0000   100.0000   100.0000   100.0000


 Surface Complexation Reactions: None

   Surface Complexes: None

 Ion Exchange Reactions: None

 ! ************************************************************************** !

 WARNING: Inhibition species "O2(aq) not found in microbial reaction.

 ! ************************************************************************** !

 Final Basis

 Primary Species:
  DOM1   (redox species)
    Charge:   0.00
    Molar Mass:  180.1566 [g/mol]
    Debye-Huckel a0:    3.0000 [Angstrom]

  O2(aq)   (redox species)
    Charge:   0.00
    Molar Mass:   31.9988 [g/mol]
    Debye-Huckel a0:    3.0000 [Angstrom]

  HCO3-   (redox species)
    Charge:  -1.00
    Molar Mass:   61.0171 [g/mol]
    Debye-Huckel a0:    4.0000 [Angstrom]

  H+   (redox species)
    Charge:   1.00
    Molar Mass:    1.0079 [g/mol]
    Debye-Huckel a0:    9.0000 [Angstrom]

  Acetate-   (redox species)
    Charge:  -1.00
    Molar Mass:   59.0446 [g/mol]
    Debye-Huckel a0:    4.5000 [Angstrom]

  H2(aq)   (redox species)
    Charge:   0.00
    Molar Mass:    2.0159 [g/mol]
    Debye-Huckel a0:    3.0000 [Angstrom]

  Tracer   (redox species)
    Charge:   0.00
    Molar Mass:    0.0000 [g/mol]
    Debye-Huckel a0:    0.0000 [Angstrom]


 Secondary Species:
  OH-
    Charge:  -1.00
    Molar Mass:   17.0073 [g/mol]
    Debye-Huckel a0:    3.5000 [Angstrom]
    Equilibrium Aqueous Reaction: 
        -1.0000  OH-                             
         1.0000  H2O                             
        -1.0000  H+                              
      logK:    14.9398    13.9951    13.0272    12.2551    11.6308    11.2836    11.1675    11.3002

  CO2(aq)
    Charge:   0.00
    Molar Mass:   44.0098 [g/mol]
    Debye-Huckel a0:    3.0000 [Angstrom]
    Equilibrium Aqueous Reaction: 
        -1.0000  CO2(aq)                         
        -1.0000  H2O                             
         1.0000  HCO3-                           
         1.0000  H+                              
      logK:    -6.5804    -6.3447    -6.2684    -6.3882    -6.7235    -7.1969    -7.7868    -8.5280


 Gas Components:
  CO2(g)
    Molar Mass:   44.0098 [g/mol]
    Gas Reaction: 
        -1.0000  CO2(g)                          
        -1.0000  H2O                             
         1.0000  HCO3-                           
         1.0000  H+                              
      logK:    -7.6765    -7.8136    -8.0527    -8.3574    -8.7692    -9.2165    -9.7202   -10.3393

  O2(g)
    Molar Mass:   31.9988 [g/mol]
    Gas Reaction: 
        -1.0000  O2(g)                           
         1.0000  O2(aq)                          
      logK:    -2.6567    -2.8983    -3.0633    -3.1076    -3.0354    -2.8742    -2.6488    -2.3537


 Minerals:
  SOM
    Molar Mass:  180.1566 [g/mol]
    Molar Volume:  1.0000E-04 [m^3/mol]
    Mineral Reaction: 
        -1.0000  SOM                             
         1.0000  DOM1                            
      logK:   100.0000   100.0000   100.0000   100.0000   100.0000   100.0000   100.0000   100.0000


 Surface Complexation Reactions: None

   Surface Complexes: None

 Ion Exchange Reactions: None

 ! ************************************************************************** !

--------------------------------------------------------------------------------

     7  Primary Species

              DOM1                  O2(aq)                HCO3-               
              H+                    Acetate-              H2(aq)              
              Tracer              

     2  Secondary Complex Species

              OH-                   CO2(aq)             

     0  Active Gas Species



     2  Passive Gas Species

              CO2(g)                O2(g)               

     1  Reference Minerals

              SOM                 

     1  Kinetic Mineral Reactions

              SOM                 

     0  Ion Exchange Reactions

     0  Ion Exchange Cations
--------------------------------------------------------------------------------
Domain Bounds (x y z):
    0.0000000000E+00  0.0000000000E+00  0.0000000000E+00
    6.0000000000E+00  1.0000000000E+00  1.0000000000E+00
 Extent of Gridded Domain
  X: 0.0000000000000000 - 6.0000000000000000
  Y: 0.0000000000000000 - 1.0000000000000000
  Z: 0.0000000000000000 - 1.0000000000000000

  Setting up TRAN Realization
  Finished setting up TRAN Realization

=+=+=+=+=+=+=+=+=+=+=+=+=+=+=+=+=+=+=+=+=+=+=+=+=+=+=+=+=+=+=+=+=+=+=+=+=+=+=+=+

  Initial Condition

--------------------------------------------------------------------------------
     Transport Condition:   initial
                  Region:   all
--------------------------------------------------------------------------------

  Transport Condition: initial

  Constraint: oc_rich
  ----------------------------------------------------------------------------
        iterations:     9
                pH:   6.0000
                pe:  13.1064
                Eh:   0.7754
    ionic strength:   3.5851E-06 [mol/L]
    charge balance:  -5.1512E-06
          pressure:   1.0132E+05 [Pa]
       temperature:    25.00 [C]
       density H2O:   997.16 [kg/m^3]
 ln / activity H2O:   0.0000E+00  1.0000E+00    [---]
 mole fraction H2O:   1.0000E+00    [---]
 mass fraction H2O:   1.0000E+00    [---]
  ----------------------------------------------------------------------------

  primary                   free        total
  species                   molal       molal       act coef     constraint
  ----------------------------------------------------------------------------
  DOM1                      1.0028E-10  1.0028E-10  1.0000E+00    total aq
  O2(aq)                    1.0028E-10  1.0028E-10  1.0000E+00    total aq
  HCO3-                     6.1578E-06  1.9746E-05  9.9778E-01    CO2(g)
  H+                        1.0022E-06  1.4580E-05  9.9779E-01    pH
  Acetate-                  1.0028E-10  1.0028E-10  9.9778E-01    total aq
  H2(aq)                    1.0028E-10  1.0028E-10  1.0000E+00    total aq
  Tracer                    1.0028E-10  1.0028E-10  1.0000E+00    total aq

  complex                   molality    act coef        logK
  ----------------------------------------------------------------------------
  CO2(aq)                   1.3588E-05  1.0000E+00   -6.3447E+00
  OH-                       1.0136E-08  9.9778E-01    1.3995E+01

  mineral                             log SI       Affinity     log K
                                                   [kJ/mol]
  ----------------------------------------------------------------------------
  SOM                                -109.9988 627873.7983    1.0000E+02

  gas              par pres [bars]  conc [mol/m^3]  log K
  ----------------------------------------------------------------------------
  CO2(g)           4.0000E-04       1.6136E-02      -7.8136E+00
  O2(g)            7.9348E-08       3.2009E-06      -2.8983E+00


--------------------------------------------------------------------------------

=+=+=+=+=+=+=+=+=+=+=+=+=+=+=+=+=+=+=+=+=+=+=+=+=+=+=+=+=+=+=+=+=+=+=+=+=+=+=+=+

  Boundary Condition

--------------------------------------------------------------------------------
     Transport Condition:   initial
                  Region:   east
--------------------------------------------------------------------------------

  Transport Condition: initial

  Constraint: oc_rich
  ----------------------------------------------------------------------------
        iterations:     9
                pH:   6.0000
                pe:  13.1064
                Eh:   0.7754
    ionic strength:   3.5851E-06 [mol/L]
    charge balance:  -5.1512E-06
          pressure:   1.0132E+05 [Pa]
       temperature:    25.00 [C]
       density H2O:   997.16 [kg/m^3]
 ln / activity H2O:   0.0000E+00  1.0000E+00    [---]
 mole fraction H2O:   1.0000E+00    [---]
 mass fraction H2O:   1.0000E+00    [---]
  ----------------------------------------------------------------------------

  primary                   free        total
  species                   molal       molal       act coef     constraint
  ----------------------------------------------------------------------------
  DOM1                      1.0028E-10  1.0028E-10  1.0000E+00    total aq
  O2(aq)                    1.0028E-10  1.0028E-10  1.0000E+00    total aq
  HCO3-                     6.1578E-06  1.9746E-05  9.9778E-01    CO2(g)
  H+                        1.0022E-06  1.4580E-05  9.9779E-01    pH
  Acetate-                  1.0028E-10  1.0028E-10  9.9778E-01    total aq
  H2(aq)                    1.0028E-10  1.0028E-10  1.0000E+00    total aq
  Tracer                    1.0028E-10  1.0028E-10  1.0000E+00    total aq

  complex                   molality    act coef        logK
  ----------------------------------------------------------------------------
  CO2(aq)                   1.3588E-05  1.0000E+00   -6.3447E+00
  OH-                       1.0136E-08  9.9778E-01    1.3995E+01

  mineral                             log SI       Affinity     log K
                                                   [kJ/mol]
  ----------------------------------------------------------------------------
  SOM                                -109.9988 627873.7983    1.0000E+02

  gas              par pres [bars]  conc [mol/m^3]  log K
  ----------------------------------------------------------------------------
  CO2(g)           4.0000E-04       1.6136E-02      -7.8136E+00
  O2(g)            7.9348E-08       3.2009E-06      -2.8983E+00


--------------------------------------------------------------------------------
Default HDF5 method is used in Initialization

 Requested processors and decomposition =     1, npx,y,z=   -1  -1  -1
 Actual decomposition: npx,y,z=    1   1   1

mode = Reactive Transport
  Beginning setup of TRAN SNES
  Finished setting up TRAN SNES

TRAN Time Stepper SNES
      maximum number of steps: 999999
constant time steps threshold: 5
       maximum number of cuts: 16
             reduction factor: 5.000000E-01
        maximum growth factor: 2.000000E+00
                 acceleration: on
       acceleration threshold: 5
       number of ramp entries: 5
                ramp entry #1: 2.0000
                ramp entry #2: 2.0000
                ramp entry #3: 2.0000
                ramp entry #4: 2.0000
                ramp entry #5: 2.0000
                ramp entry #6: 1.8000
                ramp entry #7: 1.6000
                ramp entry #8: 1.4000
                ramp entry #9: 1.2000
               ramp entry #10: 1.0000
               ramp entry #11: 1.0000
               ramp entry #12: 1.0000
               ramp entry #13: 1.0000

TRAN Newton Solver
                         atol: 1.000000E-50
                         rtol: 1.000000E-08
                         stol: 1.000000E-08
                         dtol: 1.000000E+04
                      maxnorm: 1.000000E+20
                    inftolres: -9.990000E+02
                    inftolupd: -9.990000E+02
                 inftolrelupd: -9.990000E+02
                 inftolsclres: -9.990000E+02
                     max iter: 50
                     min iter: 1
                         maxf: 10000
                  matrix type: baij
         precond. matrix type: baij
               inexact newton: off
            print convergence: on
   print detailed convergence: off
          check infinity norm: on

TRAN Linear Solver
                       solver: preonly
               preconditioner: lu
                         atol: 1.000000E-50
                         rtol: 1.000000E-05
                         dtol: 1.000000E+04
            maximum iteration: 10000

 --> creating hdf5 output file: /mnt/d/permafrost_transport_demo/data/pflotran_dir/arctic-subsurface.h5
      0.02 Seconds to write HDF5 file.

 Finished Initialization


== REACTIVE TRANSPORT ==========================================================
  0 2r: 2.25E-08 2x: 0.00E+00 2u: 0.00E+00 ir: 2.25E-09 iu: 0.00E+00 rsn:   0
  1 2r: 2.19E-08 2x: 4.65E+02 2u: 1.00E+02 ir: 2.18E-09 iu: 5.00E+00 rsn:   0
  2 2r: 7.96E-08 2x: 4.41E+02 2u: 5.19E+01 ir: 7.99E-09 iu: 5.00E+00 rsn:   0
  3 2r: 2.43E-08 2x: 4.45E+02 2u: 8.75E+00 ir: 2.44E-09 iu: 7.80E-01 rsn:   0
  4 2r: 5.34E-09 2x: 4.47E+02 2u: 5.28E+00 ir: 5.38E-10 iu: 5.20E-01 rsn:   0
  5 2r: 4.78E-10 2x: 4.48E+02 2u: 1.91E+00 ir: 4.88E-11 iu: 1.93E-01 rsn:   0
  6 2r: 4.91E-12 2x: 4.48E+02 2u: 2.07E-01 ir: 5.13E-13 iu: 2.12E-02 rsn:   0
  7 2r: 5.33E-16 2x: 4.48E+02 2u: 2.17E-03 ir: 5.85E-17 iu: 2.28E-04 rsn:   0
  8 2r: 3.98E-22 2x: 4.48E+02 2u: 2.36E-07 ir: 7.36E-23 iu: 2.60E-08 rsn: rtol

 Step      1 Time=  1.14155E-04 Dt=  1.14155E-04 [y] conv_reason: 3
  newton =   8 [       8] linear =     8 [         8] cuts =  0 [   0]
  --> SNES Linear/Non-Linear Iterations = 8 / 8
  --> SNES Residual: 0.397895E-21 0.397895E-21 0.736449E-22
  --> max change:  dcmx=   4.8871E-07  dc/dt=   1.3575E-10 [mol/s]
                  dvfmx=   1.3499E-08 dvf/dt=   3.7497E-12 [1/s]

== REACTIVE TRANSPORT ==========================================================
  0 2r: 2.05E-08 2x: 0.00E+00 2u: 0.00E+00 ir: 2.03E-09 iu: 0.00E+00 rsn:   0
  1 2r: 5.77E-09 2x: 4.38E+02 2u: 1.36E+01 ir: 5.68E-10 iu: 7.35E-01 rsn:   0
  2 2r: 2.45E-10 2x: 4.40E+02 2u: 3.02E+00 ir: 2.28E-11 iu: 1.68E-01 rsn:   0
  3 2r: 8.68E-13 2x: 4.40E+02 2u: 2.75E-01 ir: 6.29E-14 iu: 1.58E-02 rsn:   0
  4 2r: 4.91E-17 2x: 4.40E+02 2u: 2.16E-03 ir: 4.06E-18 iu: 1.26E-04 rsn: rtol

 Step      2 Time=  1.71233E-04 Dt=  5.70776E-05 [y] conv_reason: 3
  newton =   4 [      12] linear =     4 [        12] cuts =  0 [   0]
  --> SNES Linear/Non-Linear Iterations = 4 / 4
  --> SNES Residual: 0.491018E-16 0.491018E-16 0.405820E-17
  --> max change:  dcmx=   2.3184E-07  dc/dt=   1.2880E-10 [mol/s]
                  dvfmx=   6.7495E-09 dvf/dt=   3.7497E-12 [1/s]

== REACTIVE TRANSPORT ==========================================================
  0 2r: 1.96E-08 2x: 0.00E+00 2u: 0.00E+00 ir: 1.93E-09 iu: 0.00E+00 rsn:   0
  1 2r: 7.98E-09 2x: 4.23E+02 2u: 2.39E+01 ir: 6.85E-10 iu: 1.34E+00 rsn:   0
  2 2r: 8.46E-10 2x: 4.28E+02 2u: 6.79E+00 ir: 6.17E-11 iu: 3.87E-01 rsn:   0
  3 2r: 3.68E-11 2x: 4.29E+02 2u: 1.68E+00 ir: 3.02E-12 iu: 9.73E-02 rsn:   0
  4 2r: 9.29E-14 2x: 4.29E+02 2u: 8.70E-02 ir: 7.64E-15 iu: 5.06E-03 rsn:   0
  5 2r: 5.92E-19 2x: 4.29E+02 2u: 2.19E-04 ir: 4.90E-20 iu: 1.28E-05 rsn: rtol

 Step      3 Time=  2.85388E-04 Dt=  1.14155E-04 [y] conv_reason: 3
  newton =   5 [      17] linear =     5 [        17] cuts =  0 [   0]
  --> SNES Linear/Non-Linear Iterations = 5 / 5
  --> SNES Residual: 0.591538E-18 0.591538E-18 0.489915E-19
  --> max change:  dcmx=   4.1849E-07  dc/dt=   1.1625E-10 [mol/s]
                  dvfmx=   1.3499E-08 dvf/dt=   3.7497E-12 [1/s]

== REACTIVE TRANSPORT ==========================================================
  0 2r: 1.83E-08 2x: 0.00E+00 2u: 0.00E+00 ir: 1.74E-09 iu: 0.00E+00 rsn:   0
  1 2r: 1.33E-08 2x: 4.07E+02 2u: 3.24E+01 ir: 9.47E-10 iu: 1.84E+00 rsn:   0
  2 2r: 2.85E-09 2x: 4.13E+02 2u: 9.57E+00 ir: 2.31E-10 iu: 5.48E-01 rsn:   0
  3 2r: 2.92E-10 2x: 4.16E+02 2u: 3.77E+00 ir: 2.39E-11 iu: 2.18E-01 rsn:   0
  4 2r: 3.98E-12 2x: 4.16E+02 2u: 4.76E-01 ir: 3.27E-13 iu: 2.76E-02 rsn:   0
  5 2r: 7.68E-16 2x: 4.16E+02 2u: 6.66E-03 ir: 6.32E-17 iu: 3.87E-04 rsn:   0
  6 2r: 2.06E-22 2x: 4.16E+02 2u: 1.28E-06 ir: 5.98E-23 iu: 7.49E-08 rsn: rtol

 Step      4 Time=  5.13699E-04 Dt=  2.28311E-04 [y] conv_reason: 3
  newton =   6 [      23] linear =     6 [        23] cuts =  0 [   0]
  --> SNES Linear/Non-Linear Iterations = 6 / 6
  --> SNES Residual: 0.206000E-21 0.206000E-21 0.598155E-22
  --> max change:  dcmx=   6.8834E-07  dc/dt=   9.5603E-11 [mol/s]
                  dvfmx=   2.6998E-08 dvf/dt=   3.7497E-12 [1/s]

== REACTIVE TRANSPORT ==========================================================
  0 2r: 1.69E-08 2x: 0.00E+00 2u: 0.00E+00 ir: 1.43E-09 iu: 0.00E+00 rsn:   0
  1 2r: 2.04E-09 2x: 4.11E+02 2u: 6.78E+00 ir: 1.30E-10 iu: 3.79E-01 rsn:   0
  2 2r: 4.64E-11 2x: 4.12E+02 2u: 9.77E-01 ir: 3.74E-12 iu: 5.60E-02 rsn:   0
  3 2r: 3.76E-14 2x: 4.12E+02 2u: 2.81E-02 ir: 3.08E-15 iu: 1.62E-03 rsn:   0
  4 2r: 2.48E-20 2x: 4.12E+02 2u: 2.28E-05 ir: 2.04E-21 iu: 1.32E-06 rsn: rtol

 Step      5 Time=  6.27854E-04 Dt=  1.14155E-04 [y] conv_reason: 3
  newton =   4 [      27] linear =     4 [        27] cuts =  0 [   0]
  --> SNES Linear/Non-Linear Iterations = 4 / 4
  --> SNES Residual: 0.248201E-19 0.248201E-19 0.203559E-20
  --> max change:  dcmx=   3.1064E-07  dc/dt=   8.6288E-11 [mol/s]
                  dvfmx=   1.3499E-08 dvf/dt=   3.7497E-12 [1/s]

== REACTIVE TRANSPORT ==========================================================
  0 2r: 1.67E-08 2x: 0.00E+00 2u: 0.00E+00 ir: 1.29E-09 iu: 0.00E+00 rsn:   0
  1 2r: 4.29E-09 2x: 4.04E+02 2u: 1.20E+01 ir: 3.23E-10 iu: 6.81E-01 rsn:   0
  2 2r: 2.95E-10 2x: 4.05E+02 2u: 2.59E+00 ir: 2.41E-11 iu: 1.49E-01 rsn:   0
  3 2r: 1.82E-12 2x: 4.06E+02 2u: 2.13E-01 ir: 1.49E-13 iu: 1.23E-02 rsn:   0
  4 2r: 6.92E-17 2x: 4.06E+02 2u: 1.32E-03 ir: 5.67E-18 iu: 7.61E-05 rsn: rtol

 Step      6 Time=  8.56164E-04 Dt=  2.28311E-04 [y] conv_reason: 3
  newton =   4 [      31] linear =     4 [        31] cuts =  0 [   0]
  --> SNES Linear/Non-Linear Iterations = 4 / 4
  --> SNES Residual: 0.691830E-16 0.691830E-16 0.567169E-17
  --> max change:  dcmx=   5.1097E-07  dc/dt=   7.0968E-11 [mol/s]
                  dvfmx=   2.6998E-08 dvf/dt=   3.7497E-12 [1/s]

== REACTIVE TRANSPORT ==========================================================
  0 2r: 1.69E-08 2x: 0.00E+00 2u: 0.00E+00 ir: 1.06E-09 iu: 0.00E+00 rsn:   0
  1 2r: 8.94E-09 2x: 3.94E+02 2u: 1.81E+01 ir: 7.20E-10 iu: 1.03E+00 rsn:   0
  2 2r: 1.15E-09 2x: 3.97E+02 2u: 4.76E+00 ir: 9.39E-11 iu: 2.75E-01 rsn:   0
  3 2r: 2.57E-11 2x: 3.97E+02 2u: 7.85E-01 ir: 2.11E-12 iu: 4.54E-02 rsn:   0
  4 2r: 1.36E-14 2x: 3.97E+02 2u: 1.83E-02 ir: 1.12E-15 iu: 1.06E-03 rsn:   0
  5 2r: 3.85E-21 2x: 3.97E+02 2u: 9.71E-06 ir: 3.17E-22 iu: 5.63E-07 rsn: rtol

 Step      7 Time=  1.31279E-03 Dt=  4.56621E-04 [y] conv_reason: 3
  newton =   5 [      36] linear =     5 [        36] cuts =  0 [   0]
  --> SNES Linear/Non-Linear Iterations = 5 / 5
  --> SNES Residual: 0.384694E-20 0.384694E-20 0.317224E-21
  --> max change:  dcmx=   9.6861E-07  dc/dt=   6.7265E-11 [mol/s]
                  dvfmx=   5.3996E-08 dvf/dt=   3.7497E-12 [1/s]

== REACTIVE TRANSPORT ==========================================================
  0 2r: 1.82E-08 2x: 0.00E+00 2u: 0.00E+00 ir: 1.01E-09 iu: 0.00E+00 rsn:   0
  1 2r: 1.46E-08 2x: 3.84E+02 2u: 2.19E+01 ir: 1.19E-09 iu: 1.24E+00 rsn:   0
  2 2r: 2.34E-09 2x: 3.87E+02 2u: 6.12E+00 ir: 1.92E-10 iu: 3.53E-01 rsn:   0
  3 2r: 9.05E-11 2x: 3.88E+02 2u: 1.37E+00 ir: 7.42E-12 iu: 7.94E-02 rsn:   0
  4 2r: 1.50E-13 2x: 3.88E+02 2u: 5.73E-02 ir: 1.23E-14 iu: 3.32E-03 rsn:   0
  5 2r: 4.13E-19 2x: 3.88E+02 2u: 9.51E-05 ir: 3.40E-20 iu: 5.52E-06 rsn: rtol

 Step      8 Time=  2.22603E-03 Dt=  9.13242E-04 [y] conv_reason: 3
  newton =   5 [      41] linear =     5 [        41] cuts =  0 [   0]
  --> SNES Linear/Non-Linear Iterations = 5 / 5
  --> SNES Residual: 0.413041E-18 0.413041E-18 0.339853E-19
  --> max change:  dcmx=   2.3783E-06  dc/dt=   8.2581E-11 [mol/s]
                  dvfmx=   1.0799E-07 dvf/dt=   3.7497E-12 [1/s]

== REACTIVE TRANSPORT ==========================================================
  0 2r: 2.08E-08 2x: 0.00E+00 2u: 0.00E+00 ir: 1.24E-09 iu: 0.00E+00 rsn:   0
  1 2r: 1.74E-08 2x: 3.76E+02 2u: 2.30E+01 ir: 1.40E-09 iu: 1.26E+00 rsn:   0
  2 2r: 2.75E-09 2x: 3.79E+02 2u: 6.22E+00 ir: 2.25E-10 iu: 3.59E-01 rsn:   0
  3 2r: 1.10E-10 2x: 3.80E+02 2u: 1.42E+00 ir: 9.00E-12 iu: 8.21E-02 rsn:   0
  4 2r: 1.94E-13 2x: 3.80E+02 2u: 6.13E-02 ir: 1.60E-14 iu: 3.56E-03 rsn:   0
  5 2r: 6.16E-19 2x: 3.80E+02 2u: 1.09E-04 ir: 5.08E-20 iu: 6.36E-06 rsn: rtol

 Step      9 Time=  4.05251E-03 Dt=  1.82648E-03 [y] conv_reason: 3
  newton =   5 [      46] linear =     5 [        46] cuts =  0 [   0]
  --> SNES Linear/Non-Linear Iterations = 5 / 5
  --> SNES Residual: 0.616463E-18 0.616463E-18 0.508412E-19
  --> max change:  dcmx=   5.4036E-06  dc/dt=   9.3813E-11 [mol/s]
                  dvfmx=   2.1598E-07 dvf/dt=   3.7497E-12 [1/s]

== REACTIVE TRANSPORT ==========================================================
  0 2r: 2.32E-08 2x: 0.00E+00 2u: 0.00E+00 ir: 1.41E-09 iu: 0.00E+00 rsn:   0
  1 2r: 1.76E-08 2x: 3.71E+02 2u: 2.47E+01 ir: 1.34E-09 iu: 1.17E+00 rsn:   0
  2 2r: 2.44E-09 2x: 3.74E+02 2u: 6.15E+00 ir: 1.97E-10 iu: 3.28E-01 rsn:   0
  3 2r: 7.89E-11 2x: 3.75E+02 2u: 1.18E+00 ir: 6.50E-12 iu: 6.73E-02 rsn:   0
  4 2r: 9.30E-14 2x: 3.75E+02 2u: 4.06E-02 ir: 7.68E-15 iu: 2.37E-03 rsn:   0
  5 2r: 1.30E-19 2x: 3.75E+02 2u: 4.80E-05 ir: 1.08E-20 iu: 2.81E-06 rsn: rtol

 Step     10 Time=  7.70548E-03 Dt=  3.65297E-03 [y] conv_reason: 3
  newton =   5 [      51] linear =     5 [        51] cuts =  0 [   0]
  --> SNES Linear/Non-Linear Iterations = 5 / 5
  --> SNES Residual: 0.130184E-18 0.130184E-18 0.107831E-19
  --> max change:  dcmx=   1.1388E-05  dc/dt=   9.8858E-11 [mol/s]
                  dvfmx=   4.3197E-07 dvf/dt=   3.7497E-12 [1/s]

== REACTIVE TRANSPORT ==========================================================
  0 2r: 2.44E-08 2x: 0.00E+00 2u: 0.00E+00 ir: 1.48E-09 iu: 0.00E+00 rsn:   0
  1 2r: 1.79E-08 2x: 3.72E+02 2u: 2.74E+01 ir: 1.22E-09 iu: 1.38E+00 rsn:   0
  2 2r: 2.38E-09 2x: 3.75E+02 2u: 6.96E+00 ir: 1.66E-10 iu: 3.74E-01 rsn:   0
  3 2r: 6.98E-11 2x: 3.76E+02 2u: 1.50E+00 ir: 4.51E-12 iu: 8.45E-02 rsn:   0
  4 2r: 8.01E-14 2x: 3.76E+02 2u: 5.64E-02 ir: 6.95E-15 iu: 3.44E-03 rsn:   0
  5 2r: 1.65E-19 2x: 3.76E+02 2u: 8.24E-05 ir: 1.66E-20 iu: 5.32E-06 rsn: rtol

 Step     11 Time=  1.50114E-02 Dt=  7.30594E-03 [y] conv_reason: 3
  newton =   5 [      56] linear =     5 [        56] cuts =  0 [   0]
  --> SNES Linear/Non-Linear Iterations = 5 / 5
  --> SNES Residual: 0.165214E-18 0.165214E-18 0.166321E-19
  --> max change:  dcmx=   2.3071E-05  dc/dt=   1.0013E-10 [mol/s]
                  dvfmx=   8.6394E-07 dvf/dt=   3.7497E-12 [1/s]

== REACTIVE TRANSPORT ==========================================================
  0 2r: 2.46E-08 2x: 0.00E+00 2u: 0.00E+00 ir: 1.50E-09 iu: 0.00E+00 rsn:   0
  1 2r: 1.73E-08 2x: 3.78E+02 2u: 2.83E+01 ir: 1.15E-09 iu: 1.70E+00 rsn:   0
  2 2r: 2.19E-09 2x: 3.83E+02 2u: 7.39E+00 ir: 1.48E-10 iu: 5.01E-01 rsn:   0
  3 2r: 5.83E-11 2x: 3.85E+02 2u: 3.02E+00 ir: 4.17E-12 iu: 2.80E-01 rsn:   0
  4 2r: 6.26E-14 2x: 3.85E+02 2u: 6.10E-01 ir: 5.92E-15 iu: 6.14E-02 rsn:   0
  5 2r: 1.23E-19 2x: 3.85E+02 2u: 2.01E-02 ir: 1.24E-20 iu: 2.04E-03 rsn: rtol

 Step     12 Time=  2.96233E-02 Dt=  1.46119E-02 [y] conv_reason: 3
  newton =   5 [      61] linear =     5 [        61] cuts =  0 [   0]
  --> SNES Linear/Non-Linear Iterations = 5 / 5
  --> SNES Residual: 0.122760E-18 0.122760E-18 0.123908E-19
  --> max change:  dcmx=   4.6221E-05  dc/dt=   1.0031E-10 [mol/s]
                  dvfmx=   1.7279E-06 dvf/dt=   3.7497E-12 [1/s]

== REACTIVE TRANSPORT ==========================================================
  0 2r: 2.45E-08 2x: 0.00E+00 2u: 0.00E+00 ir: 1.51E-09 iu: 0.00E+00 rsn:   0
  1 2r: 1.68E-08 2x: 3.91E+02 2u: 2.81E+01 ir: 1.12E-09 iu: 1.92E+00 rsn:   0
  2 2r: 2.03E-09 2x: 3.97E+02 2u: 8.42E+00 ir: 1.39E-10 iu: 7.72E-01 rsn:   0
  3 2r: 4.50E-11 2x: 4.03E+02 2u: 6.74E+00 ir: 3.06E-12 iu: 6.84E-01 rsn:   0
  4 2r: 2.85E-14 2x: 4.06E+02 2u: 4.07E+00 ir: 2.29E-15 iu: 4.12E-01 rsn:   0
  5 2r: 2.73E-18 2x: 4.07E+02 2u: 1.11E+00 ir: 2.15E-19 iu: 1.13E-01 rsn: rtol

 Step     13 Time=  5.88470E-02 Dt=  2.92237E-02 [y] conv_reason: 3
  newton =   5 [      66] linear =     5 [        66] cuts =  0 [   0]
  --> SNES Linear/Non-Linear Iterations = 5 / 5
  --> SNES Residual: 0.272523E-17 0.272523E-17 0.215145E-18
  --> max change:  dcmx=   9.2454E-05  dc/dt=   1.0032E-10 [mol/s]
                  dvfmx=   3.4558E-06 dvf/dt=   3.7497E-12 [1/s]

== REACTIVE TRANSPORT ==========================================================
  0 2r: 2.42E-08 2x: 0.00E+00 2u: 0.00E+00 ir: 1.51E-09 iu: 0.00E+00 rsn:   0
  1 2r: 1.66E-08 2x: 4.14E+02 2u: 2.74E+01 ir: 1.10E-09 iu: 1.98E+00 rsn:   0
  2 2r: 1.97E-09 2x: 4.22E+02 2u: 8.92E+00 ir: 1.35E-10 iu: 9.19E-01 rsn:   0
  3 2r: 4.00E-11 2x: 4.29E+02 2u: 8.77E+00 ir: 2.88E-12 iu: 9.01E-01 rsn:   0
  4 2r: 1.95E-14 2x: 4.35E+02 2u: 7.79E+00 ir: 1.38E-15 iu: 7.87E-01 rsn:   0
  5 2r: 1.19E-18 2x: 4.40E+02 2u: 5.24E+00 ir: 9.09E-20 iu: 5.34E-01 rsn: rtol

 Step     14 Time=  1.17295E-01 Dt=  5.84475E-02 [y] conv_reason: 3
  newton =   5 [      71] linear =     5 [        71] cuts =  0 [   0]
  --> SNES Linear/Non-Linear Iterations = 5 / 5
  --> SNES Residual: 0.118835E-17 0.118835E-17 0.909127E-19
  --> max change:  dcmx=   1.8491E-04  dc/dt=   1.0032E-10 [mol/s]
                  dvfmx=   6.9115E-06 dvf/dt=   3.7497E-12 [1/s]

== REACTIVE TRANSPORT ==========================================================
  0 2r: 2.35E-08 2x: 0.00E+00 2u: 0.00E+00 ir: 1.51E-09 iu: 0.00E+00 rsn:   0
  1 2r: 1.61E-08 2x: 4.49E+02 2u: 2.60E+01 ir: 1.10E-09 iu: 1.99E+00 rsn:   0
  2 2r: 1.89E-09 2x: 4.57E+02 2u: 9.10E+00 ir: 1.34E-10 iu: 9.76E-01 rsn:   0
  3 2r: 3.72E-11 2x: 4.65E+02 2u: 9.45E+00 ir: 2.80E-12 iu: 9.72E-01 rsn:   0
  4 2r: 1.62E-14 2x: 4.73E+02 2u: 9.33E+00 ir: 1.30E-15 iu: 9.40E-01 rsn:   0
  5 2r: 3.43E-20 2x: 4.80E+02 2u: 8.34E+00 ir: 4.75E-21 iu: 8.49E-01 rsn: rtol

 Step     15 Time=  2.34189E-01 Dt=  1.16895E-01 [y] conv_reason: 3
  newton =   5 [      76] linear =     5 [        76] cuts =  0 [   0]
  --> SNES Linear/Non-Linear Iterations = 5 / 5
  --> SNES Residual: 0.343082E-19 0.343082E-19 0.475195E-20
  --> max change:  dcmx=   3.6981E-04  dc/dt=   1.0032E-10 [mol/s]
                  dvfmx=   1.3823E-05 dvf/dt=   3.7497E-12 [1/s]

== REACTIVE TRANSPORT ==========================================================
  0 2r: 2.33E-08 2x: 0.00E+00 2u: 0.00E+00 ir: 1.64E-09 iu: 0.00E+00 rsn:   0
  1 2r: 8.30E-10 2x: 4.89E+02 2u: 1.05E+01 ir: 6.21E-11 iu: 1.06E+00 rsn:   0
  2 2r: 9.95E-13 2x: 4.97E+02 2u: 9.58E+00 ir: 8.09E-14 iu: 9.68E-01 rsn:   0
  3 2r: 1.59E-18 2x: 5.05E+02 2u: 9.00E+00 ir: 1.43E-19 iu: 9.21E-01 rsn: rtol

 Step     16 Time=  2.50000E-01 Dt=  1.58105E-02 [y] conv_reason: 3
  newton =   3 [      79] linear =     3 [        79] cuts =  0 [   0]
  --> SNES Linear/Non-Linear Iterations = 3 / 3
  --> SNES Residual: 0.159010E-17 0.159010E-17 0.143219E-18
  --> max change:  dcmx=   5.0018E-05  dc/dt=   1.0032E-10 [mol/s]
                  dvfmx=   1.8696E-06 dvf/dt=   3.7497E-12 [1/s]

 --> appending to hdf5 output file: /mnt/d/permafrost_transport_demo/data/pflotran_dir/arctic-subsurface.h5
      0.02 Seconds to write HDF5 file.

== REACTIVE TRANSPORT ==========================================================
  0 2r: 2.19E-08 2x: 0.00E+00 2u: 0.00E+00 ir: 1.50E-09 iu: 0.00E+00 rsn:   0
  1 2r: 1.43E-08 2x: 5.16E+02 2u: 2.29E+01 ir: 1.10E-09 iu: 2.04E+00 rsn:   0
  2 2r: 1.62E-09 2x: 5.24E+02 2u: 9.27E+00 ir: 1.34E-10 iu: 9.94E-01 rsn:   0
  3 2r: 2.99E-11 2x: 5.33E+02 2u: 9.71E+00 ir: 2.79E-12 iu: 9.93E-01 rsn:   0
  4 2r: 1.15E-14 2x: 5.41E+02 2u: 9.79E+00 ir: 1.27E-15 iu: 9.86E-01 rsn:   0
  5 2r: 2.00E-21 2x: 5.50E+02 2u: 9.47E+00 ir: 2.96E-22 iu: 9.62E-01 rsn: rtol

 Step     17 Time=  5.00000E-01 Dt=  2.50000E-01 [y] conv_reason: 3
  newton =   5 [      84] linear =     5 [        84] cuts =  0 [   0]
  --> SNES Linear/Non-Linear Iterations = 5 / 5
  --> SNES Residual: 0.200329E-20 0.200329E-20 0.295924E-21
  --> max change:  dcmx=   7.8282E-04  dc/dt=   9.9292E-11 [mol/s]
                  dvfmx=   2.9563E-05 dvf/dt=   3.7497E-12 [1/s]

 --> appending to hdf5 output file: /mnt/d/permafrost_transport_demo/data/pflotran_dir/arctic-subsurface.h5
      0.01 Seconds to write HDF5 file.

== REACTIVE TRANSPORT ==========================================================
  0 2r: 1.89E-08 2x: 0.00E+00 2u: 0.00E+00 ir: 1.51E-09 iu: 0.00E+00 rsn:   0
  1 2r: 4.96E-09 2x: 5.55E+02 2u: 1.76E+01 ir: 4.61E-10 iu: 4.57E+00 rsn:   0
  2 2r: 1.90E-10 2x: 5.66E+02 2u: 1.43E+01 ir: 2.03E-11 iu: 5.00E+00 rsn:   0
  3 2r: 3.36E-13 2x: 5.72E+02 2u: 1.26E+01 ir: 4.43E-14 iu: 5.00E+00 rsn:   0
  4 2r: 1.18E-18 2x: 5.79E+02 2u: 8.01E+00 ir: 2.05E-19 iu: 9.96E-01 rsn: rtol

 Step     18 Time=  7.50000E-01 Dt=  2.50000E-01 [y] conv_reason: 3
  newton =   4 [      88] linear =     4 [        88] cuts =  0 [   0]
  --> SNES Linear/Non-Linear Iterations = 4 / 4
  --> SNES Residual: 0.117710E-17 0.117710E-17 0.205423E-18
  --> max change:  dcmx=   7.4967E-04  dc/dt=   9.5088E-11 [mol/s]
                  dvfmx=   2.9563E-05 dvf/dt=   3.7497E-12 [1/s]

 --> appending to hdf5 output file: /mnt/d/permafrost_transport_demo/data/pflotran_dir/arctic-subsurface.h5
      0.01 Seconds to write HDF5 file.

== REACTIVE TRANSPORT ==========================================================
  0 2r: 1.54E-08 2x: 0.00E+00 2u: 0.00E+00 ir: 1.45E-09 iu: 0.00E+00 rsn:   0
  1 2r: 2.33E-09 2x: 5.84E+02 2u: 3.18E+01 ir: 2.64E-10 iu: 5.00E+00 rsn:   0
  2 2r: 3.86E-11 2x: 5.78E+02 2u: 2.78E+01 ir: 5.36E-12 iu: 5.00E+00 rsn:   0
  3 2r: 1.23E-14 2x: 5.79E+02 2u: 1.40E+01 ir: 2.25E-15 iu: 5.00E+00 rsn:   0
  4 2r: 1.57E-21 2x: 5.83E+02 2u: 7.84E+00 ir: 4.89E-22 iu: 5.00E+00 rsn: rtol

 Step     19 Time=  1.00000E+00 Dt=  2.50000E-01 [y] conv_reason: 3
  newton =   4 [      92] linear =     4 [        92] cuts =  0 [   0]
  --> SNES Linear/Non-Linear Iterations = 4 / 4
  --> SNES Residual: 0.157137E-20 0.157137E-20 0.489484E-21
  --> max change:  dcmx=   6.7704E-04  dc/dt=   8.5875E-11 [mol/s]
                  dvfmx=   2.9563E-05 dvf/dt=   3.7497E-12 [1/s]

 --> appending to hdf5 output file: /mnt/d/permafrost_transport_demo/data/pflotran_dir/arctic-subsurface.h5
      0.01 Seconds to write HDF5 file.

PMCSubsurfaceTransport
 Total Time: 4.4768E-02 seconds

 TRAN TS SNES steps = 19  newton = 92  linear = 92  cuts = 0
 TRAN TS SNES Wasted Linear Iterations = 0
 TRAN TS SNES Wasted Newton Iterations = 0
 TRAN TS SNES time = 0.0 seconds

 Wall Clock Time:  1.2035E-01 [sec]   2.0058E-03 [min]   3.3431E-05 [hr]
