
=================
  PFLOTRAN v5.0
=================

"grid_structured_type" set to default value.
"CHEMISTRY,MICROBIAL_REACTION,RATE_CONSTANT units" set to default value.
"CHEMISTRY,MICROBIAL_REACTION,RATE_CONSTANT units" set to default value.
pflotran card:: NUMERICAL_METHODS
pflotran card:: SPECIFIED_VELOCITY
pflotran card:: CHEMISTRY
"SOMPREFACTOR RATE UNITS" set to default value.
pflotran card:: GRID
pflotran card:: FLUID_PROPERTY
"FLUID_PROPERTY,diffusion_coefficient units" set to default value.
pflotran card:: MATERIAL_PROPERTY
  Name :: soil1
pflotran card:: OUTPUT
"OUTPUT,FORMAT,HDF5,# FILES" set to default value.
pflotran card:: TIME
pflotran card:: REGION
all
pflotran card:: REGION
west
pflotran card:: REGION
east
pflotran card:: TRANSPORT_CONDITION
initial
pflotran card:: TRANSPORT_CONDITION
inlet
pflotran card:: CONSTRAINT
fertilizer
Constraint Species: DOM1
Constraint Species: O2(aq)
Constraint Species: H+
Constraint Species: HCO3-
Constraint Species: NO3-
Constraint Species: N2(aq)
pflotran card:: CONSTRAINT
oc_rich
Constraint Species: DOM1
Constraint Species: O2(aq)
Constraint Species: H+
Constraint Species: HCO3-
Constraint Species: NO3-
Constraint Species: N2(aq)
Constraint Minerals: SOM
"SOM SPECIFIC SURFACE_AREA UNITS" set to default value.
pflotran card:: CONSTRAINT
oc_poor
Constraint Species: DOM1
Constraint Species: O2(aq)
Constraint Species: H+
Constraint Species: HCO3-
Constraint Species: NO3-
Constraint Species: N2(aq)
pflotran card:: INITIAL_CONDITION
"Initial Condition name" set to default value.
pflotran card:: BOUNDARY_CONDITION
pflotran card:: BOUNDARY_CONDITION
pflotran card:: STRATA
pflotran card:: END_SUBSURFACE

 ! ************************************************************************** !

 Initial Basis

 Primary Species:
  DOM1   (redox species)
    Charge:   0.00
    Molar Mass:  180.1566 [g/mol]
    Debye-Huckel a0:    3.0000 [Angstrom]

  O2(aq)   (redox species)
    Charge:   0.00
    Molar Mass:   31.9988 [g/mol]
    Debye-Huckel a0:    3.0000 [Angstrom]

  NO3-   (redox species)
    Charge:  -1.00
    Molar Mass:   62.0049 [g/mol]
    Debye-Huckel a0:    3.0000 [Angstrom]
    Equilibrium Aqueous Reaction: 
        -1.0000  NO3-                            
        -1.0000  H+                              
        -1.0000  H2O                             
         1.0000  NH3(aq)                         
         2.0000  O2(g)                           
      logK:   -62.8645   -56.3035   -48.6988   -41.6846   -34.6926   -29.0797   -24.4213   -20.3964

  HCO3-   (redox species)
    Charge:  -1.00
    Molar Mass:   61.0171 [g/mol]
    Debye-Huckel a0:    4.0000 [Angstrom]

  H+   (redox species)
    Charge:   1.00
    Molar Mass:    1.0079 [g/mol]
    Debye-Huckel a0:    9.0000 [Angstrom]

  N2(aq)   (redox species)
    Charge:   0.00
    Molar Mass:   28.0135 [g/mol]
    Debye-Huckel a0:    3.0000 [Angstrom]
    Equilibrium Aqueous Reaction: 
        -1.0000  N2(aq)                          
        -3.0000  H2O                             
         1.5000  O2(g)                           
         2.0000  NH3(aq)                         
      logK:  -123.4712  -112.1135   -99.2148   -87.5714   -76.2582   -67.4642   -60.4620   -54.7940


 Secondary Species:
  OH-
    Charge:  -1.00
    Molar Mass:   17.0073 [g/mol]
    Debye-Huckel a0:    3.5000 [Angstrom]
    Equilibrium Aqueous Reaction: 
        -1.0000  OH-                             
        -1.0000  H+                              
         1.0000  H2O                             
      logK:    14.9398    13.9951    13.0272    12.2551    11.6308    11.2836    11.1675    11.3002

  CO2(aq)
    Charge:   0.00
    Molar Mass:   44.0098 [g/mol]
    Debye-Huckel a0:    3.0000 [Angstrom]
    Equilibrium Aqueous Reaction: 
        -1.0000  CO2(aq)                         
        -1.0000  H2O                             
         1.0000  H+                              
         1.0000  HCO3-                           
      logK:    -6.5804    -6.3447    -6.2684    -6.3882    -6.7235    -7.1969    -7.7868    -8.5280


 Gas Components:
  CO2(g)
    Molar Mass:   44.0098 [g/mol]
    Gas Reaction: 
        -1.0000  CO2(g)                          
        -1.0000  H2O                             
         1.0000  H+                              
         1.0000  HCO3-                           
      logK:    -7.6765    -7.8136    -8.0527    -8.3574    -8.7692    -9.2165    -9.7202   -10.3393

  N2(g)*
    Molar Mass:   44.0098 [g/mol]
    Gas Reaction: 
        -1.0000  N2(g)*                          
         1.0000  N2(aq)                          
      logK:    -1.0970    -1.4680    -1.7850    -1.9700    -2.0450    -2.0190    -1.9340    -1.8110

  O2(g)
    Molar Mass:   31.9988 [g/mol]
    Gas Reaction: 
        -1.0000  O2(g)                           
         1.0000  O2(aq)                          
      logK:    -2.6567    -2.8983    -3.0633    -3.1076    -3.0354    -2.8742    -2.6488    -2.3537


 Minerals:
  SOM
    Molar Mass:  180.1566 [g/mol]
    Molar Volume:  1.0000E-04 [m^3/mol]
    Mineral Reaction: 
        -1.0000  SOM                             
         1.0000  DOM1                            
      logK:   100.0000   100.0000   100.0000   100.0000   100.0000   100.0000   100.0000   100.0000


 Surface Complexation Reactions: None

   Surface Complexes: None

 Ion Exchange Reactions: None

 ! ************************************************************************** !

 WARNING: Inhibition species "O2(aq) not found in microbial reaction.

 ! ************************************************************************** !

 Final Basis

 Primary Species:
  DOM1   (redox species)
    Charge:   0.00
    Molar Mass:  180.1566 [g/mol]
    Debye-Huckel a0:    3.0000 [Angstrom]

  O2(aq)   (redox species)
    Charge:   0.00
    Molar Mass:   31.9988 [g/mol]
    Debye-Huckel a0:    3.0000 [Angstrom]

  NO3-   (redox species)
    Charge:  -1.00
    Molar Mass:   62.0049 [g/mol]
    Debye-Huckel a0:    3.0000 [Angstrom]

  HCO3-   (redox species)
    Charge:  -1.00
    Molar Mass:   61.0171 [g/mol]
    Debye-Huckel a0:    4.0000 [Angstrom]

  H+   (redox species)
    Charge:   1.00
    Molar Mass:    1.0079 [g/mol]
    Debye-Huckel a0:    9.0000 [Angstrom]

  N2(aq)   (redox species)
    Charge:   0.00
    Molar Mass:   28.0135 [g/mol]
    Debye-Huckel a0:    3.0000 [Angstrom]


 Secondary Species:
  OH-
    Charge:  -1.00
    Molar Mass:   17.0073 [g/mol]
    Debye-Huckel a0:    3.5000 [Angstrom]
    Equilibrium Aqueous Reaction: 
        -1.0000  OH-                             
         1.0000  H2O                             
        -1.0000  H+                              
      logK:    14.9398    13.9951    13.0272    12.2551    11.6308    11.2836    11.1675    11.3002

  CO2(aq)
    Charge:   0.00
    Molar Mass:   44.0098 [g/mol]
    Debye-Huckel a0:    3.0000 [Angstrom]
    Equilibrium Aqueous Reaction: 
        -1.0000  CO2(aq)                         
        -1.0000  H2O                             
         1.0000  HCO3-                           
         1.0000  H+                              
      logK:    -6.5804    -6.3447    -6.2684    -6.3882    -6.7235    -7.1969    -7.7868    -8.5280


 Gas Components:
  CO2(g)
    Molar Mass:   44.0098 [g/mol]
    Gas Reaction: 
        -1.0000  CO2(g)                          
        -1.0000  H2O                             
         1.0000  HCO3-                           
         1.0000  H+                              
      logK:    -7.6765    -7.8136    -8.0527    -8.3574    -8.7692    -9.2165    -9.7202   -10.3393

  N2(g)*
    Molar Mass:   44.0098 [g/mol]
    Gas Reaction: 
        -1.0000  N2(g)*                          
         1.0000  N2(aq)                          
      logK:    -1.0970    -1.4680    -1.7850    -1.9700    -2.0450    -2.0190    -1.9340    -1.8110

  O2(g)
    Molar Mass:   31.9988 [g/mol]
    Gas Reaction: 
        -1.0000  O2(g)                           
         1.0000  O2(aq)                          
      logK:    -2.6567    -2.8983    -3.0633    -3.1076    -3.0354    -2.8742    -2.6488    -2.3537


 Minerals:
  SOM
    Molar Mass:  180.1566 [g/mol]
    Molar Volume:  1.0000E-04 [m^3/mol]
    Mineral Reaction: 
        -1.0000  SOM                             
         1.0000  DOM1                            
      logK:   100.0000   100.0000   100.0000   100.0000   100.0000   100.0000   100.0000   100.0000


 Surface Complexation Reactions: None

   Surface Complexes: None

 Ion Exchange Reactions: None

 ! ************************************************************************** !

--------------------------------------------------------------------------------

     6  Primary Species

              DOM1                  O2(aq)                NO3-                
              HCO3-                 H+                    N2(aq)              


     2  Secondary Complex Species

              OH-                   CO2(aq)             

     0  Active Gas Species



     3  Passive Gas Species

              CO2(g)                N2(g)*                O2(g)               


     1  Reference Minerals

              SOM                 

     1  Kinetic Mineral Reactions

              SOM                 

     0  Ion Exchange Reactions

     0  Ion Exchange Cations
--------------------------------------------------------------------------------
Domain Bounds (x y z):
    0.0000000000E+00  0.0000000000E+00  0.0000000000E+00
    6.0000000000E+00  1.0000000000E+00  1.0000000000E+00
 Extent of Gridded Domain
  X: 0.0000000000000000 - 6.0000000000000000
  Y: 0.0000000000000000 - 1.0000000000000000
  Z: 0.0000000000000000 - 1.0000000000000000

  Setting up TRAN Realization
  Finished setting up TRAN Realization

=+=+=+=+=+=+=+=+=+=+=+=+=+=+=+=+=+=+=+=+=+=+=+=+=+=+=+=+=+=+=+=+=+=+=+=+=+=+=+=+

  Initial Condition

--------------------------------------------------------------------------------
     Transport Condition:   initial
                  Region:   all
--------------------------------------------------------------------------------

  Transport Condition: initial

  Constraint: oc_rich
  ----------------------------------------------------------------------------
        iterations:     9
                pH:   6.0000
                pe:  13.1064
                Eh:   0.7754
    ionic strength:   3.5851E-06 [mol/L]
    charge balance:  -5.1512E-06
          pressure:   1.0132E+05 [Pa]
       temperature:    25.00 [C]
       density H2O:   997.16 [kg/m^3]
 ln / activity H2O:   0.0000E+00  1.0000E+00    [---]
 mole fraction H2O:   1.0000E+00    [---]
 mass fraction H2O:   1.0000E+00    [---]
  ----------------------------------------------------------------------------

  primary                   free        total
  species                   molal       molal       act coef     constraint
  ----------------------------------------------------------------------------
  DOM1                      1.0028E-10  1.0028E-10  1.0000E+00    total aq
  O2(aq)                    1.0028E-10  1.0028E-10  1.0000E+00    total aq
  NO3-                      1.0028E-10  1.0028E-10  9.9778E-01    total aq
  HCO3-                     6.1578E-06  1.9746E-05  9.9778E-01    CO2(g)
  H+                        1.0022E-06  1.4580E-05  9.9779E-01    pH
  N2(aq)                    1.0028E-10  1.0028E-10  1.0000E+00    total aq

  complex                   molality    act coef        logK
  ----------------------------------------------------------------------------
  CO2(aq)                   1.3588E-05  1.0000E+00   -6.3447E+00
  OH-                       1.0136E-08  9.9778E-01    1.3995E+01

  mineral                             log SI       Affinity     log K
                                                   [kJ/mol]
  ----------------------------------------------------------------------------
  SOM                                -109.9988 627873.7983    1.0000E+02

  gas              par pres [bars]  conc [mol/m^3]  log K
  ----------------------------------------------------------------------------
  CO2(g)           4.0000E-04       1.6136E-02      -7.8136E+00
  N2(g)*           2.9460E-09       1.1884E-07      -1.4680E+00
  O2(g)            7.9348E-08       3.2009E-06      -2.8983E+00


--------------------------------------------------------------------------------

=+=+=+=+=+=+=+=+=+=+=+=+=+=+=+=+=+=+=+=+=+=+=+=+=+=+=+=+=+=+=+=+=+=+=+=+=+=+=+=+

  Boundary Condition

--------------------------------------------------------------------------------
     Transport Condition:   initial
                  Region:   east
--------------------------------------------------------------------------------

  Transport Condition: initial

  Constraint: oc_rich
  ----------------------------------------------------------------------------
        iterations:     9
                pH:   6.0000
                pe:  13.1064
                Eh:   0.7754
    ionic strength:   3.5851E-06 [mol/L]
    charge balance:  -5.1512E-06
          pressure:   1.0132E+05 [Pa]
       temperature:    25.00 [C]
       density H2O:   997.16 [kg/m^3]
 ln / activity H2O:   0.0000E+00  1.0000E+00    [---]
 mole fraction H2O:   1.0000E+00    [---]
 mass fraction H2O:   1.0000E+00    [---]
  ----------------------------------------------------------------------------

  primary                   free        total
  species                   molal       molal       act coef     constraint
  ----------------------------------------------------------------------------
  DOM1                      1.0028E-10  1.0028E-10  1.0000E+00    total aq
  O2(aq)                    1.0028E-10  1.0028E-10  1.0000E+00    total aq
  NO3-                      1.0028E-10  1.0028E-10  9.9778E-01    total aq
  HCO3-                     6.1578E-06  1.9746E-05  9.9778E-01    CO2(g)
  H+                        1.0022E-06  1.4580E-05  9.9779E-01    pH
  N2(aq)                    1.0028E-10  1.0028E-10  1.0000E+00    total aq

  complex                   molality    act coef        logK
  ----------------------------------------------------------------------------
  CO2(aq)                   1.3588E-05  1.0000E+00   -6.3447E+00
  OH-                       1.0136E-08  9.9778E-01    1.3995E+01

  mineral                             log SI       Affinity     log K
                                                   [kJ/mol]
  ----------------------------------------------------------------------------
  SOM                                -109.9988 627873.7983    1.0000E+02

  gas              par pres [bars]  conc [mol/m^3]  log K
  ----------------------------------------------------------------------------
  CO2(g)           4.0000E-04       1.6136E-02      -7.8136E+00
  N2(g)*           2.9460E-09       1.1884E-07      -1.4680E+00
  O2(g)            7.9348E-08       3.2009E-06      -2.8983E+00


--------------------------------------------------------------------------------

=+=+=+=+=+=+=+=+=+=+=+=+=+=+=+=+=+=+=+=+=+=+=+=+=+=+=+=+=+=+=+=+=+=+=+=+=+=+=+=+

  Boundary Condition

--------------------------------------------------------------------------------
     Transport Condition:   inlet
                  Region:   west
--------------------------------------------------------------------------------

  Transport Condition: inlet

  Constraint: fertilizer
  ----------------------------------------------------------------------------
        iterations:    14
                pH:   6.0000
                pe:  14.7121
                Eh:   0.8704
    ionic strength:   1.0390E-04 [mol/L]
    charge balance:  -2.0520E-04
          pressure:   1.0132E+05 [Pa]
       temperature:    25.00 [C]
       density H2O:   997.16 [kg/m^3]
 ln / activity H2O:   0.0000E+00  1.0000E+00    [---]
 mole fraction H2O:   9.9951E-01    [---]
 mass fraction H2O:   9.9923E-01    [---]
  ----------------------------------------------------------------------------

  primary                   free        total
  species                   molal       molal       act coef     constraint
  ----------------------------------------------------------------------------
  DOM1                      1.0028E-10  1.0028E-10  1.0000E+00    total aq
  O2(aq)                    2.6541E-04  2.6541E-04  1.0000E+00    O2(g)
  NO3-                      2.0057E-04  2.0057E-04  9.8820E-01    total aq
  HCO3-                     6.2173E-06  1.9805E-05  9.8824E-01    CO2(g)
  H+                        1.0117E-06  1.4590E-05  9.8843E-01    pH
  N2(aq)                    2.6552E-02  2.6552E-02  1.0000E+00    N2(g)*

  complex                   molality    act coef        logK
  ----------------------------------------------------------------------------
  CO2(aq)                   1.3588E-05  1.0000E+00   -6.3447E+00
  OH-                       1.0234E-08  9.8822E-01    1.3995E+01

  mineral                             log SI       Affinity     log K
                                                   [kJ/mol]
  ----------------------------------------------------------------------------
  SOM                                -109.9988 627873.7983    1.0000E+02

  gas              par pres [bars]  conc [mol/m^3]  log K
  ----------------------------------------------------------------------------
  CO2(g)           4.0000E-04       1.6136E-02      -7.8136E+00
  N2(g)*           7.8000E-01       3.1465E+01      -1.4680E+00
  O2(g)            2.1000E-01       8.4713E+00      -2.8983E+00


--------------------------------------------------------------------------------
Default HDF5 method is used in Initialization

 Requested processors and decomposition =     1, npx,y,z=   -1  -1  -1
 Actual decomposition: npx,y,z=    1   1   1

mode = Reactive Transport
  Beginning setup of TRAN SNES
  Finished setting up TRAN SNES

TRAN Time Stepper SNES
      maximum number of steps: 999999
constant time steps threshold: 5
       maximum number of cuts: 16
             reduction factor: 5.000000E-01
        maximum growth factor: 2.000000E+00
                 acceleration: on
       acceleration threshold: 5
       number of ramp entries: 5
                ramp entry #1: 2.0000
                ramp entry #2: 2.0000
                ramp entry #3: 2.0000
                ramp entry #4: 2.0000
                ramp entry #5: 2.0000
                ramp entry #6: 1.8000
                ramp entry #7: 1.6000
                ramp entry #8: 1.4000
                ramp entry #9: 1.2000
               ramp entry #10: 1.0000
               ramp entry #11: 1.0000
               ramp entry #12: 1.0000
               ramp entry #13: 1.0000

TRAN Newton Solver
                         atol: 1.000000E-50
                         rtol: 1.000000E-08
                         stol: 1.000000E-08
                         dtol: 1.000000E+04
                      maxnorm: 1.000000E+20
                    inftolres: -9.990000E+02
                    inftolupd: -9.990000E+02
                 inftolrelupd: -9.990000E+02
                 inftolsclres: -9.990000E+02
                     max iter: 50
                     min iter: 1
                         maxf: 10000
                  matrix type: baij
         precond. matrix type: baij
               inexact newton: off
            print convergence: on
   print detailed convergence: off
          check infinity norm: on

TRAN Linear Solver
                       solver: preonly
               preconditioner: lu
                         atol: 1.000000E-50
                         rtol: 1.000000E-05
                         dtol: 1.000000E+04
            maximum iteration: 10000

 --> creating hdf5 output file: /mnt/d/permafrost_transport_demo/data/pflotran_dir/nitrate-subsurface.h5
      0.03 Seconds to write HDF5 file.

 Finished Initialization


== REACTIVE TRANSPORT ==========================================================
  0 2r: 1.22E-06 2x: 0.00E+00 2u: 0.00E+00 ir: 1.06E-06 iu: 0.00E+00 rsn:   0
  1 2r: 1.22E-06 2x: 5.04E+02 2u: 1.00E+02 ir: 1.06E-06 iu: 5.00E+00 rsn:   0
  2 2r: 1.17E-06 2x: 4.39E+02 2u: 8.74E+01 ir: 1.05E-06 iu: 5.00E+00 rsn:   0
  3 2r: 1.30E-05 2x: 4.77E+02 2u: 8.05E+01 ir: 1.31E-06 iu: 5.00E+00 rsn:   0
  4 2r: 4.61E-06 2x: 4.63E+02 2u: 3.08E+01 ir: 4.68E-07 iu: 5.00E+00 rsn:   0
  5 2r: 1.55E-06 2x: 4.73E+02 2u: 1.38E+01 ir: 1.58E-07 iu: 8.86E-01 rsn:   0
  6 2r: 4.47E-07 2x: 4.78E+02 2u: 9.82E+00 ir: 4.54E-08 iu: 7.36E-01 rsn:   0
  7 2r: 8.34E-08 2x: 4.79E+02 2u: 5.38E+00 ir: 8.49E-09 iu: 5.10E-01 rsn:   0
  8 2r: 4.90E-09 2x: 4.79E+02 2u: 1.58E+00 ir: 5.02E-10 iu: 2.39E-01 rsn:   0
  9 2r: 1.99E-11 2x: 4.79E+02 2u: 1.13E-01 ir: 2.08E-12 iu: 4.31E-02 rsn:   0
 10 2r: 3.34E-16 2x: 4.79E+02 2u: 1.16E-03 ir: 4.59E-17 iu: 1.07E-03 rsn: rtol

 Step      1 Time=  1.14155E-04 Dt=  1.14155E-04 [y] conv_reason: 3
  newton =  10 [      10] linear =    10 [        10] cuts =  0 [   0]
  --> SNES Linear/Non-Linear Iterations = 10 / 10
  --> SNES Residual: 0.334249E-15 0.334249E-15 0.458934E-16
  --> max change:  dcmx=   2.5322E-04  dc/dt=   7.0340E-08 [mol/s]
                  dvfmx=   3.6000E-07 dvf/dt=   1.0000E-10 [1/s]

== REACTIVE TRANSPORT ==========================================================
  0 2r: 1.21E-06 2x: 0.00E+00 2u: 0.00E+00 ir: 1.05E-06 iu: 0.00E+00 rsn:   0
  1 2r: 3.59E-07 2x: 4.89E+02 2u: 1.56E+01 ir: 3.12E-07 iu: 1.15E+00 rsn:   0
  2 2r: 1.56E-08 2x: 4.97E+02 2u: 9.73E+00 ir: 1.36E-08 iu: 8.54E-01 rsn:   0
  3 2r: 3.37E-11 2x: 5.02E+02 2u: 7.22E+00 ir: 2.88E-11 iu: 7.09E-01 rsn:   0
  4 2r: 4.64E-14 2x: 5.04E+02 2u: 4.07E+00 ir: 2.40E-15 iu: 4.11E-01 rsn:   0
  5 2r: 2.48E-15 2x: 5.05E+02 2u: 1.10E+00 ir: 1.29E-16 iu: 1.11E-01 rsn: rtol

 Step      2 Time=  1.71233E-04 Dt=  5.70776E-05 [y] conv_reason: 3
  newton =   5 [      15] linear =     5 [        15] cuts =  0 [   0]
  --> SNES Linear/Non-Linear Iterations = 5 / 5
  --> SNES Residual: 0.247787E-14 0.247787E-14 0.128983E-15
  --> max change:  dcmx=   1.2605E-04  dc/dt=   7.0028E-08 [mol/s]
                  dvfmx=   1.8000E-07 dvf/dt=   1.0000E-10 [1/s]

== REACTIVE TRANSPORT ==========================================================
  0 2r: 1.21E-06 2x: 0.00E+00 2u: 0.00E+00 ir: 1.05E-06 iu: 0.00E+00 rsn:   0
  1 2r: 5.03E-07 2x: 5.16E+02 2u: 1.75E+01 ir: 4.35E-07 iu: 2.23E+00 rsn:   0
  2 2r: 3.44E-08 2x: 5.25E+02 2u: 1.15E+01 ir: 2.93E-08 iu: 9.17E-01 rsn:   0
  3 2r: 3.22E-10 2x: 5.33E+02 2u: 9.41E+00 ir: 2.59E-10 iu: 8.55E-01 rsn:   0
  4 2r: 1.47E-12 2x: 5.37E+02 2u: 6.66E+00 ir: 1.18E-12 iu: 6.64E-01 rsn:   0
  5 2r: 1.61E-15 2x: 5.39E+02 2u: 3.42E+00 ir: 1.50E-15 iu: 3.47E-01 rsn: rtol

 Step      3 Time=  2.85388E-04 Dt=  1.14155E-04 [y] conv_reason: 3
  newton =   5 [      20] linear =     5 [        20] cuts =  0 [   0]
  --> SNES Linear/Non-Linear Iterations = 5 / 5
  --> SNES Residual: 0.161394E-14 0.161394E-14 0.149528E-14
  --> max change:  dcmx=   2.4951E-04  dc/dt=   6.9309E-08 [mol/s]
                  dvfmx=   3.6000E-07 dvf/dt=   1.0000E-10 [1/s]

== REACTIVE TRANSPORT ==========================================================
  0 2r: 1.20E-06 2x: 0.00E+00 2u: 0.00E+00 ir: 1.04E-06 iu: 0.00E+00 rsn:   0
  1 2r: 6.25E-07 2x: 5.51E+02 2u: 1.91E+01 ir: 5.31E-07 iu: 5.00E+00 rsn:   0
  2 2r: 5.85E-08 2x: 5.62E+02 2u: 1.27E+01 ir: 4.57E-08 iu: 9.54E-01 rsn:   0
  3 2r: 3.33E-09 2x: 5.71E+02 2u: 1.13E+01 ir: 2.94E-09 iu: 9.31E-01 rsn:   0
  4 2r: 3.64E-10 2x: 5.78E+02 2u: 8.93E+00 ir: 3.57E-10 iu: 8.32E-01 rsn:   0
  5 2r: 3.76E-11 2x: 5.83E+02 2u: 6.11E+00 ir: 3.76E-11 iu: 6.14E-01 rsn:   0
  6 2r: 5.57E-13 2x: 5.84E+02 2u: 2.83E+00 ir: 5.52E-13 iu: 2.87E-01 rsn:   0
  7 2r: 1.94E-16 2x: 5.85E+02 2u: 4.92E-01 ir: 1.50E-16 iu: 5.00E-02 rsn: rtol

 Step      4 Time=  5.13699E-04 Dt=  2.28311E-04 [y] conv_reason: 3
  newton =   7 [      27] linear =     7 [        27] cuts =  0 [   0]
  --> SNES Linear/Non-Linear Iterations = 7 / 7
  --> SNES Residual: 0.194121E-15 0.194121E-15 0.149608E-15
  --> max change:  dcmx=   4.8865E-04  dc/dt=   6.7868E-08 [mol/s]
                  dvfmx=   7.2000E-07 dvf/dt=   1.0000E-10 [1/s]

== REACTIVE TRANSPORT ==========================================================
  0 2r: 1.18E-06 2x: 0.00E+00 2u: 0.00E+00 ir: 1.02E-06 iu: 0.00E+00 rsn:   0
  1 2r: 1.39E-07 2x: 5.96E+02 2u: 1.38E+01 ir: 1.18E-07 iu: 1.01E+00 rsn:   0
  2 2r: 1.45E-09 2x: 6.06E+02 2u: 1.21E+01 ir: 1.19E-09 iu: 9.53E-01 rsn:   0
  3 2r: 4.02E-13 2x: 6.15E+02 2u: 1.00E+01 ir: 3.63E-13 iu: 8.84E-01 rsn:   0
  4 2r: 1.98E-17 2x: 6.21E+02 2u: 7.31E+00 ir: 1.18E-18 iu: 7.20E-01 rsn: rtol

 Step      5 Time=  6.27854E-04 Dt=  1.14155E-04 [y] conv_reason: 3
  newton =   4 [      31] linear =     4 [        31] cuts =  0 [   0]
  --> SNES Linear/Non-Linear Iterations = 4 / 4
  --> SNES Residual: 0.197937E-16 0.197937E-16 0.117842E-17
  --> max change:  dcmx=   2.4176E-04  dc/dt=   6.7156E-08 [mol/s]
                  dvfmx=   3.6000E-07 dvf/dt=   1.0000E-10 [1/s]

== REACTIVE TRANSPORT ==========================================================
  0 2r: 1.17E-06 2x: 0.00E+00 2u: 0.00E+00 ir: 1.00E-06 iu: 0.00E+00 rsn:   0
  1 2r: 2.34E-07 2x: 6.32E+02 2u: 1.47E+01 ir: 1.97E-07 iu: 1.83E+00 rsn:   0
  2 2r: 6.26E-09 2x: 6.43E+02 2u: 1.23E+01 ir: 4.68E-09 iu: 8.98E-01 rsn:   0
  3 2r: 3.05E-11 2x: 6.52E+02 2u: 1.02E+01 ir: 2.55E-11 iu: 7.59E-01 rsn:   0
  4 2r: 5.26E-14 2x: 6.57E+02 2u: 6.20E+00 ir: 4.25E-14 iu: 4.85E-01 rsn:   0
  5 2r: 8.19E-18 2x: 6.59E+02 2u: 1.92E+00 ir: 8.18E-18 iu: 1.63E-01 rsn: rtol

 Step      6 Time=  8.56164E-04 Dt=  2.28311E-04 [y] conv_reason: 3
  newton =   5 [      36] linear =     5 [        36] cuts =  0 [   0]
  --> SNES Linear/Non-Linear Iterations = 5 / 5
  --> SNES Residual: 0.818945E-17 0.818945E-17 0.818328E-17
  --> max change:  dcmx=   4.7353E-04  dc/dt=   6.5767E-08 [mol/s]
                  dvfmx=   7.2000E-07 dvf/dt=   1.0000E-10 [1/s]

== REACTIVE TRANSPORT ==========================================================
  0 2r: 1.15E-06 2x: 0.00E+00 2u: 0.00E+00 ir: 9.84E-07 iu: 0.00E+00 rsn:   0
  1 2r: 3.59E-07 2x: 6.65E+02 2u: 1.38E+01 ir: 2.90E-07 iu: 5.00E+00 rsn:   0
  2 2r: 2.24E-08 2x: 6.70E+02 2u: 9.34E+00 ir: 1.53E-08 iu: 9.47E-01 rsn:   0
  3 2r: 1.27E-09 2x: 6.75E+02 2u: 8.33E+00 ir: 9.73E-10 iu: 8.63E-01 rsn:   0
  4 2r: 1.43E-10 2x: 6.79E+02 2u: 6.23E+00 ir: 1.33E-10 iu: 6.76E-01 rsn:   0
  5 2r: 1.84E-11 2x: 6.81E+02 2u: 3.02E+00 ir: 1.83E-11 iu: 3.63E-01 rsn:   0
  6 2r: 4.99E-13 2x: 6.81E+02 2u: 5.66E-01 ir: 4.98E-13 iu: 8.44E-02 rsn:   0
  7 2r: 4.01E-16 2x: 6.81E+02 2u: 1.70E-02 ir: 3.94E-16 iu: 3.77E-03 rsn: rtol

 Step      7 Time=  1.31279E-03 Dt=  4.56621E-04 [y] conv_reason: 3
  newton =   7 [      43] linear =     7 [        43] cuts =  0 [   0]
  --> SNES Linear/Non-Linear Iterations = 7 / 7
  --> SNES Residual: 0.400844E-15 0.400844E-15 0.394447E-15
  --> max change:  dcmx=   9.0882E-04  dc/dt=   6.3113E-08 [mol/s]
                  dvfmx=   1.4400E-06 dvf/dt=   1.0000E-10 [1/s]

== REACTIVE TRANSPORT ==========================================================
  0 2r: 1.12E-06 2x: 0.00E+00 2u: 0.00E+00 ir: 9.44E-07 iu: 0.00E+00 rsn:   0
  1 2r: 9.96E-08 2x: 6.86E+02 2u: 9.60E+00 ir: 8.09E-08 iu: 9.56E-01 rsn:   0
  2 2r: 7.24E-10 2x: 6.92E+02 2u: 8.44E+00 ir: 4.76E-10 iu: 8.62E-01 rsn:   0
  3 2r: 2.29E-13 2x: 6.96E+02 2u: 6.59E+00 ir: 1.83E-13 iu: 6.75E-01 rsn:   0
  4 2r: 6.55E-19 2x: 6.98E+02 2u: 3.53E+00 ir: 4.90E-19 iu: 3.62E-01 rsn: rtol

 Step      8 Time=  1.54110E-03 Dt=  2.28311E-04 [y] conv_reason: 3
  newton =   4 [      47] linear =     4 [        47] cuts =  0 [   0]
  --> SNES Linear/Non-Linear Iterations = 4 / 4
  --> SNES Residual: 0.655020E-18 0.655020E-18 0.490313E-18
  --> max change:  dcmx=   4.4507E-04  dc/dt=   6.1815E-08 [mol/s]
                  dvfmx=   7.2000E-07 dvf/dt=   1.0000E-10 [1/s]

== REACTIVE TRANSPORT ==========================================================
  0 2r: 1.11E-06 2x: 0.00E+00 2u: 0.00E+00 ir: 9.25E-07 iu: 0.00E+00 rsn:   0
  1 2r: 1.74E-07 2x: 7.02E+02 2u: 9.32E+00 ir: 1.36E-07 iu: 2.18E+00 rsn:   0
  2 2r: 4.10E-09 2x: 7.06E+02 2u: 5.76E+00 ir: 2.96E-09 iu: 6.41E-01 rsn:   0
  3 2r: 2.72E-11 2x: 7.07E+02 2u: 2.49E+00 ir: 2.15E-11 iu: 3.18E-01 rsn:   0
  4 2r: 7.80E-14 2x: 7.08E+02 2u: 3.73E-01 ir: 5.82E-14 iu: 6.28E-02 rsn:   0
  5 2r: 3.00E-17 2x: 7.08E+02 2u: 7.35E-03 ir: 2.95E-17 iu: 2.06E-03 rsn: rtol

 Step      9 Time=  1.99772E-03 Dt=  4.56621E-04 [y] conv_reason: 3
  newton =   5 [      52] linear =     5 [        52] cuts =  0 [   0]
  --> SNES Linear/Non-Linear Iterations = 5 / 5
  --> SNES Residual: 0.299729E-16 0.299729E-16 0.295130E-16
  --> max change:  dcmx=   8.5438E-04  dc/dt=   5.9332E-08 [mol/s]
                  dvfmx=   1.4400E-06 dvf/dt=   1.0000E-10 [1/s]

== REACTIVE TRANSPORT ==========================================================
  0 2r: 1.08E-06 2x: 0.00E+00 2u: 0.00E+00 ir: 8.87E-07 iu: 0.00E+00 rsn:   0
  1 2r: 2.85E-07 2x: 7.07E+02 2u: 1.07E+01 ir: 1.97E-07 iu: 5.00E+00 rsn:   0
  2 2r: 2.14E-08 2x: 7.08E+02 2u: 2.11E+00 ir: 1.60E-08 iu: 9.55E-01 rsn:   0
  3 2r: 1.96E-09 2x: 7.08E+02 2u: 1.65E+00 ir: 1.37E-09 iu: 8.82E-01 rsn:   0
  4 2r: 2.59E-10 2x: 7.08E+02 2u: 1.21E+00 ir: 2.18E-10 iu: 7.16E-01 rsn:   0
  5 2r: 2.84E-11 2x: 7.08E+02 2u: 6.34E-01 ir: 2.73E-11 iu: 4.19E-01 rsn:   0
  6 2r: 1.56E-12 2x: 7.08E+02 2u: 1.56E-01 ir: 1.56E-12 iu: 1.16E-01 rsn:   0
  7 2r: 5.70E-15 2x: 7.08E+02 2u: 8.67E-03 ir: 5.69E-15 iu: 7.32E-03 rsn: rtol

 Step     10 Time=  2.91096E-03 Dt=  9.13242E-04 [y] conv_reason: 3
  newton =   7 [      59] linear =     7 [        59] cuts =  0 [   0]
  --> SNES Linear/Non-Linear Iterations = 7 / 7
  --> SNES Residual: 0.570288E-14 0.570288E-14 0.569173E-14
  --> max change:  dcmx=   1.5775E-03  dc/dt=   5.4776E-08 [mol/s]
                  dvfmx=   2.8800E-06 dvf/dt=   1.0000E-10 [1/s]

== REACTIVE TRANSPORT ==========================================================
  0 2r: 1.03E-06 2x: 0.00E+00 2u: 0.00E+00 ir: 8.19E-07 iu: 0.00E+00 rsn:   0
  1 2r: 8.15E-08 2x: 7.07E+02 2u: 2.18E+00 ir: 5.77E-08 iu: 7.54E-01 rsn:   0
  2 2r: 6.40E-10 2x: 7.07E+02 2u: 3.33E-01 ir: 4.85E-10 iu: 1.75E-01 rsn:   0
  3 2r: 3.10E-13 2x: 7.07E+02 2u: 2.67E-02 ir: 2.46E-13 iu: 1.72E-02 rsn:   0
  4 2r: 1.65E-18 2x: 7.07E+02 2u: 2.08E-04 ir: 1.14E-18 iu: 1.49E-04 rsn: rtol

 Step     11 Time=  3.36758E-03 Dt=  4.56621E-04 [y] conv_reason: 3
  newton =   4 [      63] linear =     4 [        63] cuts =  0 [   0]
  --> SNES Linear/Non-Linear Iterations = 4 / 4
  --> SNES Residual: 0.164599E-17 0.164599E-17 0.114046E-17
  --> max change:  dcmx=   7.5737E-04  dc/dt=   5.2595E-08 [mol/s]
                  dvfmx=   1.4400E-06 dvf/dt=   1.0000E-10 [1/s]

== REACTIVE TRANSPORT ==========================================================
  0 2r: 1.01E-06 2x: 0.00E+00 2u: 0.00E+00 ir: 7.87E-07 iu: 0.00E+00 rsn:   0
  1 2r: 1.47E-07 2x: 7.07E+02 2u: 5.59E+00 ir: 9.27E-08 iu: 2.81E+00 rsn:   0
  2 2r: 4.39E-09 2x: 7.07E+02 2u: 1.42E+00 ir: 3.28E-09 iu: 7.70E-01 rsn:   0
  3 2r: 5.33E-11 2x: 7.07E+02 2u: 7.25E-01 ir: 3.67E-11 iu: 5.03E-01 rsn:   0
  4 2r: 3.93E-13 2x: 7.07E+02 2u: 2.06E-01 ir: 2.81E-13 iu: 1.78E-01 rsn:   0
  5 2r: 1.26E-15 2x: 7.07E+02 2u: 1.83E-02 ir: 1.15E-15 iu: 1.79E-02 rsn: rtol

 Step     12 Time=  4.28082E-03 Dt=  9.13242E-04 [y] conv_reason: 3
  newton =   5 [      68] linear =     5 [        68] cuts =  0 [   0]
  --> SNES Linear/Non-Linear Iterations = 5 / 5
  --> SNES Residual: 0.125617E-14 0.125617E-14 0.114835E-14
  --> max change:  dcmx=   1.3995E-03  dc/dt=   4.8592E-08 [mol/s]
                  dvfmx=   2.8800E-06 dvf/dt=   1.0000E-10 [1/s]

== REACTIVE TRANSPORT ==========================================================
  0 2r: 9.68E-07 2x: 0.00E+00 2u: 0.00E+00 ir: 7.27E-07 iu: 0.00E+00 rsn:   0
  1 2r: 2.68E-07 2x: 7.06E+02 2u: 1.24E+01 ir: 1.54E-07 iu: 5.00E+00 rsn:   0
  2 2r: 3.21E-08 2x: 7.06E+02 2u: 2.42E+00 ir: 1.98E-08 iu: 9.45E-01 rsn:   0
  3 2r: 5.70E-09 2x: 7.06E+02 2u: 1.88E+00 ir: 4.33E-09 iu: 8.58E-01 rsn:   0
  4 2r: 1.22E-09 2x: 7.06E+02 2u: 1.28E+00 ir: 1.19E-09 iu: 6.64E-01 rsn:   0
  5 2r: 1.69E-10 2x: 7.06E+02 2u: 5.70E-01 ir: 1.68E-10 iu: 3.48E-01 rsn:   0
  6 2r: 4.70E-12 2x: 7.06E+02 2u: 1.04E-01 ir: 4.66E-12 iu: 7.66E-02 rsn:   0
  7 2r: 4.07E-15 2x: 7.06E+02 2u: 3.55E-03 ir: 3.83E-15 iu: 3.09E-03 rsn: rtol

 Step     13 Time=  6.10731E-03 Dt=  1.82648E-03 [y] conv_reason: 3
  newton =   7 [      75] linear =     7 [        75] cuts =  0 [   0]
  --> SNES Linear/Non-Linear Iterations = 7 / 7
  --> SNES Residual: 0.406675E-14 0.406675E-14 0.383251E-14
  --> max change:  dcmx=   2.4071E-03  dc/dt=   4.1789E-08 [mol/s]
                  dvfmx=   5.7600E-06 dvf/dt=   1.0000E-10 [1/s]

== REACTIVE TRANSPORT ==========================================================
  0 2r: 9.09E-07 2x: 0.00E+00 2u: 0.00E+00 ir: 6.25E-07 iu: 0.00E+00 rsn:   0
  1 2r: 7.18E-08 2x: 7.06E+02 2u: 2.44E+00 ir: 3.81E-08 iu: 8.35E-01 rsn:   0
  2 2r: 7.29E-10 2x: 7.06E+02 2u: 4.39E-01 ir: 4.79E-10 iu: 2.04E-01 rsn:   0
  3 2r: 6.11E-13 2x: 7.06E+02 2u: 4.25E-02 ir: 4.27E-13 iu: 2.39E-02 rsn:   0
  4 2r: 6.83E-18 2x: 7.06E+02 2u: 4.52E-04 ir: 4.41E-18 iu: 2.89E-04 rsn: rtol

 Step     14 Time=  7.02055E-03 Dt=  9.13242E-04 [y] conv_reason: 3
  newton =   4 [      79] linear =     4 [        79] cuts =  0 [   0]
  --> SNES Linear/Non-Linear Iterations = 4 / 4
  --> SNES Residual: 0.683055E-17 0.683055E-17 0.440761E-17
  --> max change:  dcmx=   1.1135E-03  dc/dt=   3.8663E-08 [mol/s]
                  dvfmx=   2.8800E-06 dvf/dt=   1.0000E-10 [1/s]

== REACTIVE TRANSPORT ==========================================================
  0 2r: 8.84E-07 2x: 0.00E+00 2u: 0.00E+00 ir: 5.78E-07 iu: 0.00E+00 rsn:   0
  1 2r: 1.37E-07 2x: 7.05E+02 2u: 7.73E+00 ir: 7.94E-08 iu: 3.65E+00 rsn:   0
  2 2r: 5.90E-09 2x: 7.06E+02 2u: 1.92E+00 ir: 4.03E-09 iu: 8.79E-01 rsn:   0
  3 2r: 1.48E-10 2x: 7.06E+02 2u: 1.27E+00 ir: 9.53E-11 iu: 7.09E-01 rsn:   0
  4 2r: 3.03E-12 2x: 7.06E+02 2u: 6.26E-01 ir: 2.03E-12 iu: 4.09E-01 rsn:   0
  5 2r: 5.28E-14 2x: 7.06E+02 2u: 1.50E-01 ir: 4.07E-14 iu: 1.11E-01 rsn:   0
  6 2r: 1.46E-16 2x: 7.06E+02 2u: 8.11E-03 ir: 1.46E-16 iu: 6.58E-03 rsn: rtol

 Step     15 Time=  8.84703E-03 Dt=  1.82648E-03 [y] conv_reason: 3
  newton =   6 [      85] linear =     6 [        85] cuts =  0 [   0]
  --> SNES Linear/Non-Linear Iterations = 6 / 6
  --> SNES Residual: 0.146062E-15 0.146062E-15 0.145506E-15
  --> max change:  dcmx=   1.9203E-03  dc/dt=   3.3338E-08 [mol/s]
                  dvfmx=   5.7600E-06 dvf/dt=   1.0000E-10 [1/s]

== REACTIVE TRANSPORT ==========================================================
  0 2r: 8.45E-07 2x: 0.00E+00 2u: 0.00E+00 ir: 4.99E-07 iu: 0.00E+00 rsn:   0
  1 2r: 4.72E-08 2x: 7.05E+02 2u: 1.82E+00 ir: 2.61E-08 iu: 6.28E-01 rsn:   0
  2 2r: 2.70E-10 2x: 7.05E+02 2u: 2.80E-01 ir: 1.82E-10 iu: 1.31E-01 rsn:   0
  3 2r: 7.43E-14 2x: 7.05E+02 2u: 1.64E-02 ir: 4.93E-14 iu: 9.40E-03 rsn:   0
  4 2r: 9.49E-20 2x: 7.05E+02 2u: 6.50E-05 ir: 5.98E-20 iu: 4.44E-05 rsn: rtol

 Step     16 Time=  9.76027E-03 Dt=  9.13242E-04 [y] conv_reason: 3
  newton =   4 [      89] linear =     4 [        89] cuts =  0 [   0]
  --> SNES Linear/Non-Linear Iterations = 4 / 4
  --> SNES Residual: 0.949435E-19 0.949435E-19 0.597542E-19
  --> max change:  dcmx=   8.8956E-04  dc/dt=   3.0888E-08 [mol/s]
                  dvfmx=   2.8800E-06 dvf/dt=   1.0000E-10 [1/s]

== REACTIVE TRANSPORT ==========================================================
  0 2r: 8.29E-07 2x: 0.00E+00 2u: 0.00E+00 ir: 4.62E-07 iu: 0.00E+00 rsn:   0
  1 2r: 9.25E-08 2x: 7.05E+02 2u: 5.24E+00 ir: 5.16E-08 iu: 2.29E+00 rsn:   0
  2 2r: 2.35E-09 2x: 7.05E+02 2u: 1.41E+00 ir: 1.53E-09 iu: 6.66E-01 rsn:   0
  3 2r: 1.97E-11 2x: 7.05E+02 2u: 6.07E-01 ir: 1.22E-11 iu: 3.50E-01 rsn:   0
  4 2r: 5.41E-14 2x: 7.05E+02 2u: 1.16E-01 ir: 3.37E-14 iu: 7.77E-02 rsn:   0
  5 2r: 2.96E-17 2x: 7.05E+02 2u: 4.27E-03 ir: 2.53E-17 iu: 3.18E-03 rsn: rtol

 Step     17 Time=  1.15868E-02 Dt=  1.82648E-03 [y] conv_reason: 3
  newton =   5 [      94] linear =     5 [        94] cuts =  0 [   0]
  --> SNES Linear/Non-Linear Iterations = 5 / 5
  --> SNES Residual: 0.296254E-16 0.296254E-16 0.252516E-16
  --> max change:  dcmx=   1.5382E-03  dc/dt=   2.6705E-08 [mol/s]
                  dvfmx=   5.7600E-06 dvf/dt=   1.0000E-10 [1/s]

== REACTIVE TRANSPORT ==========================================================
  0 2r: 8.03E-07 2x: 0.00E+00 2u: 0.00E+00 ir: 3.99E-07 iu: 0.00E+00 rsn:   0
  1 2r: 1.96E-07 2x: 7.04E+02 2u: 1.43E+01 ir: 9.68E-08 iu: 5.00E+00 rsn:   0
  2 2r: 2.57E-08 2x: 7.04E+02 2u: 2.80E+00 ir: 1.33E-08 iu: 9.53E-01 rsn:   0
  3 2r: 4.78E-09 2x: 7.04E+02 2u: 2.24E+00 ir: 3.37E-09 iu: 8.78E-01 rsn:   0
  4 2r: 9.74E-10 2x: 7.04E+02 2u: 1.48E+00 ir: 8.79E-10 iu: 7.06E-01 rsn:   0
  5 2r: 1.21E-10 2x: 7.04E+02 2u: 6.36E-01 ir: 9.71E-11 iu: 4.04E-01 rsn:   0
  6 2r: 4.78E-12 2x: 7.04E+02 2u: 1.28E-01 ir: 4.52E-12 iu: 1.07E-01 rsn:   0
  7 2r: 1.51E-14 2x: 7.04E+02 2u: 6.37E-03 ir: 1.49E-14 iu: 6.18E-03 rsn:   0
  8 2r: 1.46E-19 2x: 7.04E+02 2u: 1.92E-05 ir: 1.43E-19 iu: 1.92E-05 rsn: rtol

 Step     18 Time=  1.52397E-02 Dt=  3.65297E-03 [y] conv_reason: 3
  newton =   8 [     102] linear =     8 [       102] cuts =  0 [   0]
  --> SNES Linear/Non-Linear Iterations = 8 / 8
  --> SNES Residual: 0.146393E-18 0.146393E-18 0.143210E-18
  --> max change:  dcmx=   2.4618E-03  dc/dt=   2.1370E-08 [mol/s]
                  dvfmx=   1.1520E-05 dvf/dt=   1.0000E-10 [1/s]

== REACTIVE TRANSPORT ==========================================================
  0 2r: 7.66E-07 2x: 0.00E+00 2u: 0.00E+00 ir: 3.20E-07 iu: 0.00E+00 rsn:   0
  1 2r: 5.48E-08 2x: 7.04E+02 2u: 2.66E+00 ir: 2.53E-08 iu: 8.71E-01 rsn:   0
  2 2r: 5.93E-10 2x: 7.04E+02 2u: 5.38E-01 ir: 3.67E-10 iu: 2.17E-01 rsn:   0
  3 2r: 6.14E-13 2x: 7.04E+02 2u: 5.64E-02 ir: 3.61E-13 iu: 2.72E-02 rsn:   0
  4 2r: 8.74E-18 2x: 7.04E+02 2u: 6.62E-04 ir: 5.26E-18 iu: 3.77E-04 rsn: rtol

 Step     19 Time=  1.70662E-02 Dt=  1.82648E-03 [y] conv_reason: 3
  newton =   4 [     106] linear =     4 [       106] cuts =  0 [   0]
  --> SNES Linear/Non-Linear Iterations = 4 / 4
  --> SNES Residual: 0.874008E-17 0.874008E-17 0.525892E-17
  --> max change:  dcmx=   1.1994E-03  dc/dt=   2.0823E-08 [mol/s]
                  dvfmx=   5.7600E-06 dvf/dt=   1.0000E-10 [1/s]

== REACTIVE TRANSPORT ==========================================================
  0 2r: 7.52E-07 2x: 0.00E+00 2u: 0.00E+00 ir: 3.11E-07 iu: 0.00E+00 rsn:   0
  1 2r: 1.12E-07 2x: 7.03E+02 2u: 1.04E+01 ir: 5.53E-08 iu: 4.51E+00 rsn:   0
  2 2r: 6.00E-09 2x: 7.03E+02 2u: 2.47E+00 ir: 3.38E-09 iu: 9.39E-01 rsn:   0
  3 2r: 2.26E-10 2x: 7.03E+02 2u: 1.84E+00 ir: 1.27E-10 iu: 8.45E-01 rsn:   0
  4 2r: 8.18E-12 2x: 7.03E+02 2u: 1.14E+00 ir: 4.73E-12 iu: 6.39E-01 rsn:   0
  5 2r: 3.30E-13 2x: 7.04E+02 2u: 4.68E-01 ir: 2.28E-13 iu: 3.16E-01 rsn:   0
  6 2r: 5.54E-15 2x: 7.04E+02 2u: 8.05E-02 ir: 5.12E-15 iu: 6.19E-02 rsn: rtol

 Step     20 Time=  2.07192E-02 Dt=  3.65297E-03 [y] conv_reason: 3
  newton =   6 [     112] linear =     6 [       112] cuts =  0 [   0]
  --> SNES Linear/Non-Linear Iterations = 6 / 6
  --> SNES Residual: 0.554457E-14 0.554457E-14 0.512095E-14
  --> max change:  dcmx=   2.2076E-03  dc/dt=   1.9163E-08 [mol/s]
                  dvfmx=   1.1520E-05 dvf/dt=   1.0000E-10 [1/s]

== REACTIVE TRANSPORT ==========================================================
  0 2r: 7.32E-07 2x: 0.00E+00 2u: 0.00E+00 ir: 2.87E-07 iu: 0.00E+00 rsn:   0
  1 2r: 3.91E-08 2x: 7.03E+02 2u: 2.11E+00 ir: 1.80E-08 iu: 6.75E-01 rsn:   0
  2 2r: 2.62E-10 2x: 7.03E+02 2u: 3.71E-01 ir: 1.53E-10 iu: 1.47E-01 rsn:   0
  3 2r: 1.04E-13 2x: 7.03E+02 2u: 2.50E-02 ir: 5.89E-14 iu: 1.20E-02 rsn:   0
  4 2r: 2.22E-19 2x: 7.03E+02 2u: 1.26E-04 ir: 1.24E-19 iu: 7.21E-05 rsn: rtol

 Step     21 Time=  2.25457E-02 Dt=  1.82648E-03 [y] conv_reason: 3
  newton =   4 [     116] linear =     4 [       116] cuts =  0 [   0]
  --> SNES Linear/Non-Linear Iterations = 4 / 4
  --> SNES Residual: 0.222104E-18 0.222104E-18 0.124289E-18
  --> max change:  dcmx=   1.0507E-03  dc/dt=   1.8241E-08 [mol/s]
                  dvfmx=   5.7600E-06 dvf/dt=   1.0000E-10 [1/s]

== REACTIVE TRANSPORT ==========================================================
  0 2r: 7.24E-07 2x: 0.00E+00 2u: 0.00E+00 ir: 2.73E-07 iu: 0.00E+00 rsn:   0
  1 2r: 8.01E-08 2x: 7.03E+02 2u: 7.15E+00 ir: 3.61E-08 iu: 2.85E+00 rsn:   0
  2 2r: 2.68E-09 2x: 7.03E+02 2u: 1.96E+00 ir: 1.52E-09 iu: 7.78E-01 rsn:   0
  3 2r: 3.79E-11 2x: 7.03E+02 2u: 1.04E+00 ir: 2.02E-11 iu: 5.16E-01 rsn:   0
  4 2r: 2.41E-13 2x: 7.03E+02 2u: 3.09E-01 ir: 1.27E-13 iu: 1.89E-01 rsn:   0
  5 2r: 6.02E-16 2x: 7.03E+02 2u: 2.74E-02 ir: 4.31E-16 iu: 2.04E-02 rsn: rtol

 Step     22 Time=  2.61986E-02 Dt=  3.65297E-03 [y] conv_reason: 3
  newton =   5 [     121] linear =     5 [       121] cuts =  0 [   0]
  --> SNES Linear/Non-Linear Iterations = 5 / 5
  --> SNES Residual: 0.601678E-15 0.601678E-15 0.431372E-15
  --> max change:  dcmx=   1.8754E-03  dc/dt=   1.6280E-08 [mol/s]
                  dvfmx=   1.1520E-05 dvf/dt=   1.0000E-10 [1/s]

== REACTIVE TRANSPORT ==========================================================
  0 2r: 7.10E-07 2x: 0.00E+00 2u: 0.00E+00 ir: 2.44E-07 iu: 0.00E+00 rsn:   0
  1 2r: 2.15E-07 2x: 7.01E+02 2u: 1.81E+01 ir: 8.13E-08 iu: 5.00E+00 rsn:   0
  2 2r: 4.69E-08 2x: 7.01E+02 2u: 3.36E+00 ir: 2.36E-08 iu: 9.58E-01 rsn:   0
  3 2r: 1.26E-08 2x: 7.02E+02 2u: 2.60E+00 ir: 8.46E-09 iu: 8.91E-01 rsn:   0
  4 2r: 3.29E-09 2x: 7.02E+02 2u: 1.65E+00 ir: 2.77E-09 iu: 7.33E-01 rsn:   0
  5 2r: 6.37E-10 2x: 7.02E+02 2u: 7.44E-01 ir: 6.19E-10 iu: 4.45E-01 rsn:   0
  6 2r: 4.37E-11 2x: 7.02E+02 2u: 1.71E-01 ir: 4.27E-11 iu: 1.34E-01 rsn:   0
  7 2r: 2.20E-13 2x: 7.02E+02 2u: 1.05E-02 ir: 2.11E-13 iu: 9.80E-03 rsn:   0
  8 2r: 5.39E-18 2x: 7.02E+02 2u: 4.87E-05 ir: 5.11E-18 iu: 4.84E-05 rsn: rtol

 Step     23 Time=  3.35046E-02 Dt=  7.30594E-03 [y] conv_reason: 3
  newton =   8 [     129] linear =     8 [       129] cuts =  0 [   0]
  --> SNES Linear/Non-Linear Iterations = 8 / 8
  --> SNES Residual: 0.539093E-17 0.539093E-17 0.510622E-17
  --> max change:  dcmx=   3.2104E-03  dc/dt=   1.3934E-08 [mol/s]
                  dvfmx=   2.3040E-05 dvf/dt=   1.0000E-10 [1/s]

== REACTIVE TRANSPORT ==========================================================
  0 2r: 6.91E-07 2x: 0.00E+00 2u: 0.00E+00 ir: 2.08E-07 iu: 0.00E+00 rsn:   0
  1 2r: 4.93E-08 2x: 7.01E+02 2u: 3.33E+00 ir: 2.03E-08 iu: 9.31E-01 rsn:   0
  2 2r: 6.99E-10 2x: 7.01E+02 2u: 7.37E-01 ir: 3.75E-10 iu: 2.39E-01 rsn:   0
  3 2r: 1.16E-12 2x: 7.01E+02 2u: 8.75E-02 ir: 6.08E-13 iu: 3.35E-02 rsn:   0
  4 2r: 3.12E-17 2x: 7.01E+02 2u: 1.27E-03 ir: 1.64E-17 iu: 5.73E-04 rsn: rtol

 Step     24 Time=  3.71575E-02 Dt=  3.65297E-03 [y] conv_reason: 3
  newton =   4 [     133] linear =     4 [       133] cuts =  0 [   0]
  --> SNES Linear/Non-Linear Iterations = 4 / 4
  --> SNES Residual: 0.312305E-16 0.312305E-16 0.163800E-16
  --> max change:  dcmx=   1.5277E-03  dc/dt=   1.3262E-08 [mol/s]
                  dvfmx=   1.1520E-05 dvf/dt=   1.0000E-10 [1/s]

== REACTIVE TRANSPORT ==========================================================
  0 2r: 6.83E-07 2x: 0.00E+00 2u: 0.00E+00 ir: 1.98E-07 iu: 0.00E+00 rsn:   0
  1 2r: 1.08E-07 2x: 7.00E+02 2u: 1.54E+01 ir: 4.45E-08 iu: 5.00E+00 rsn:   0
  2 2r: 8.63E-09 2x: 7.00E+02 2u: 3.32E+00 ir: 4.14E-09 iu: 9.58E-01 rsn:   0
  3 2r: 6.09E-10 2x: 7.00E+02 2u: 2.70E+00 ir: 2.84E-10 iu: 8.92E-01 rsn:   0
  4 2r: 4.67E-11 2x: 7.01E+02 2u: 1.96E+00 ir: 2.33E-11 iu: 7.36E-01 rsn:   0
  5 2r: 3.91E-12 2x: 7.01E+02 2u: 1.06E+00 ir: 2.48E-12 iu: 4.48E-01 rsn:   0
  6 2r: 1.66E-13 2x: 7.01E+02 2u: 2.87E-01 ir: 1.32E-13 iu: 1.36E-01 rsn:   0
  7 2r: 6.82E-16 2x: 7.01E+02 2u: 1.88E-02 ir: 6.14E-16 iu: 1.02E-02 rsn: rtol

 Step     25 Time=  4.44635E-02 Dt=  7.30594E-03 [y] conv_reason: 3
  newton =   7 [     140] linear =     7 [       140] cuts =  0 [   0]
  --> SNES Linear/Non-Linear Iterations = 7 / 7
  --> SNES Residual: 0.681683E-15 0.681683E-15 0.613731E-15
  --> max change:  dcmx=   2.6534E-03  dc/dt=   1.1516E-08 [mol/s]
                  dvfmx=   2.3040E-05 dvf/dt=   1.0000E-10 [1/s]

== REACTIVE TRANSPORT ==========================================================
  0 2r: 6.71E-07 2x: 0.00E+00 2u: 0.00E+00 ir: 1.72E-07 iu: 0.00E+00 rsn:   0
  1 2r: 3.59E-08 2x: 7.00E+02 2u: 2.72E+00 ir: 1.36E-08 iu: 7.39E-01 rsn:   0
  2 2r: 3.22E-10 2x: 7.00E+02 2u: 5.30E-01 ir: 1.62E-10 iu: 1.69E-01 rsn:   0
  3 2r: 2.11E-13 2x: 7.00E+02 2u: 4.21E-02 ir: 1.03E-13 iu: 1.61E-02 rsn:   0
  4 2r: 9.35E-19 2x: 7.00E+02 2u: 2.86E-04 ir: 4.48E-19 iu: 1.31E-04 rsn: rtol

 Step     26 Time=  4.81164E-02 Dt=  3.65297E-03 [y] conv_reason: 3
  newton =   4 [     144] linear =     4 [       144] cuts =  0 [   0]
  --> SNES Linear/Non-Linear Iterations = 4 / 4
  --> SNES Residual: 0.935207E-18 0.935207E-18 0.447982E-18
  --> max change:  dcmx=   1.2828E-03  dc/dt=   1.1135E-08 [mol/s]
                  dvfmx=   1.1520E-05 dvf/dt=   1.0000E-10 [1/s]

== REACTIVE TRANSPORT ==========================================================
  0 2r: 6.67E-07 2x: 0.00E+00 2u: 0.00E+00 ir: 1.67E-07 iu: 0.00E+00 rsn:   0
  1 2r: 7.72E-08 2x: 6.99E+02 2u: 1.09E+01 ir: 2.98E-08 iu: 3.70E+00 rsn:   0
  2 2r: 3.83E-09 2x: 7.00E+02 2u: 2.84E+00 ir: 1.80E-09 iu: 8.83E-01 rsn:   0
  3 2r: 1.05E-10 2x: 7.00E+02 2u: 1.87E+00 ir: 4.77E-11 iu: 7.18E-01 rsn:   0
  4 2r: 1.77E-12 2x: 7.00E+02 2u: 8.86E-01 ir: 7.97E-13 iu: 4.22E-01 rsn:   0
  5 2r: 2.10E-14 2x: 7.00E+02 2u: 2.02E-01 ir: 1.13E-14 iu: 1.18E-01 rsn:   0
  6 2r: 4.10E-17 2x: 7.00E+02 2u: 1.08E-02 ir: 3.15E-17 iu: 7.59E-03 rsn: rtol

 Step     27 Time=  5.54224E-02 Dt=  7.30594E-03 [y] conv_reason: 3
  newton =   6 [     150] linear =     6 [       150] cuts =  0 [   0]
  --> SNES Linear/Non-Linear Iterations = 6 / 6
  --> SNES Residual: 0.410162E-16 0.410162E-16 0.314682E-16
  --> max change:  dcmx=   2.3688E-03  dc/dt=   1.0281E-08 [mol/s]
                  dvfmx=   2.3040E-05 dvf/dt=   1.0000E-10 [1/s]

== REACTIVE TRANSPORT ==========================================================
  0 2r: 6.58E-07 2x: 0.00E+00 2u: 0.00E+00 ir: 1.54E-07 iu: 0.00E+00 rsn:   0
  1 2r: 2.84E-08 2x: 6.99E+02 2u: 2.39E+00 ir: 1.01E-08 iu: 6.37E-01 rsn:   0
  2 2r: 1.86E-10 2x: 7.00E+02 2u: 4.26E-01 ir: 8.91E-11 iu: 1.34E-01 rsn:   0
  3 2r: 6.60E-14 2x: 7.00E+02 2u: 2.61E-02 ir: 3.08E-14 iu: 9.84E-03 rsn:   0
  4 2r: 9.37E-20 2x: 7.00E+02 2u: 1.08E-04 ir: 4.22E-20 iu: 4.87E-05 rsn: rtol

 Step     28 Time=  5.90753E-02 Dt=  3.65297E-03 [y] conv_reason: 3
  newton =   4 [     154] linear =     4 [       154] cuts =  0 [   0]
  --> SNES Linear/Non-Linear Iterations = 4 / 4
  --> SNES Residual: 0.937214E-19 0.937214E-19 0.422272E-19
  --> max change:  dcmx=   1.1258E-03  dc/dt=   9.7727E-09 [mol/s]
                  dvfmx=   1.1520E-05 dvf/dt=   1.0000E-10 [1/s]

== REACTIVE TRANSPORT ==========================================================
  0 2r: 6.55E-07 2x: 0.00E+00 2u: 0.00E+00 ir: 1.46E-07 iu: 0.00E+00 rsn:   0
  1 2r: 6.05E-08 2x: 6.99E+02 2u: 8.60E+00 ir: 2.20E-08 iu: 2.76E+00 rsn:   0
  2 2r: 2.16E-09 2x: 6.99E+02 2u: 2.41E+00 ir: 9.80E-10 iu: 7.63E-01 rsn:   0
  3 2r: 3.05E-11 2x: 6.99E+02 2u: 1.24E+00 ir: 1.33E-11 iu: 4.91E-01 rsn:   0
  4 2r: 1.55E-13 2x: 6.99E+02 2u: 3.42E-01 ir: 6.61E-14 iu: 1.69E-01 rsn:   0
  5 2r: 2.59E-16 2x: 6.99E+02 2u: 2.66E-02 ir: 1.46E-16 iu: 1.59E-02 rsn: rtol

 Step     29 Time=  6.63813E-02 Dt=  7.30594E-03 [y] conv_reason: 3
  newton =   5 [     159] linear =     5 [       159] cuts =  0 [   0]
  --> SNES Linear/Non-Linear Iterations = 5 / 5
  --> SNES Residual: 0.258528E-15 0.258528E-15 0.145612E-15
  --> max change:  dcmx=   2.1258E-03  dc/dt=   9.2267E-09 [mol/s]
                  dvfmx=   2.3040E-05 dvf/dt=   1.0000E-10 [1/s]

== REACTIVE TRANSPORT ==========================================================
  0 2r: 6.48E-07 2x: 0.00E+00 2u: 0.00E+00 ir: 1.38E-07 iu: 0.00E+00 rsn:   0
  1 2r: 2.11E-07 2x: 6.96E+02 2u: 2.32E+01 ir: 9.56E-08 iu: 5.00E+00 rsn:   0
  2 2r: 5.63E-08 2x: 6.97E+02 2u: 4.14E+00 ir: 3.50E-08 iu: 9.58E-01 rsn:   0
  3 2r: 1.68E-08 2x: 6.97E+02 2u: 3.15E+00 ir: 1.26E-08 iu: 8.90E-01 rsn:   0
  4 2r: 4.71E-09 2x: 6.97E+02 2u: 2.03E+00 ir: 4.13E-09 iu: 7.32E-01 rsn:   0
  5 2r: 9.49E-10 2x: 6.97E+02 2u: 9.60E-01 ir: 9.28E-10 iu: 4.43E-01 rsn:   0
  6 2r: 6.23E-11 2x: 6.97E+02 2u: 2.32E-01 ir: 6.15E-11 iu: 1.33E-01 rsn:   0
  7 2r: 2.68E-13 2x: 6.97E+02 2u: 1.44E-02 ir: 2.60E-13 iu: 9.61E-03 rsn:   0
  8 2r: 4.81E-18 2x: 6.97E+02 2u: 6.09E-05 ir: 4.53E-18 iu: 4.65E-05 rsn: rtol

 Step     30 Time=  8.09932E-02 Dt=  1.46119E-02 [y] conv_reason: 3
  newton =   8 [     167] linear =     8 [       167] cuts =  0 [   0]
  --> SNES Linear/Non-Linear Iterations = 8 / 8
  --> SNES Residual: 0.480598E-17 0.480598E-17 0.453121E-17
  --> max change:  dcmx=   3.6986E-03  dc/dt=   8.0264E-09 [mol/s]
                  dvfmx=   4.6080E-05 dvf/dt=   1.0000E-10 [1/s]

== REACTIVE TRANSPORT ==========================================================
  0 2r: 6.36E-07 2x: 0.00E+00 2u: 0.00E+00 ir: 1.20E-07 iu: 0.00E+00 rsn:   0
  1 2r: 4.03E-08 2x: 6.97E+02 2u: 4.23E+00 ir: 1.32E-08 iu: 9.54E-01 rsn:   0
  2 2r: 6.73E-10 2x: 6.97E+02 2u: 9.83E-01 ir: 2.89E-10 iu: 2.47E-01 rsn:   0
  3 2r: 1.43E-12 2x: 6.97E+02 2u: 1.23E-01 ir: 6.05E-13 iu: 3.62E-02 rsn:   0
  4 2r: 5.17E-17 2x: 6.97E+02 2u: 1.95E-03 ir: 2.20E-17 iu: 6.70E-04 rsn: rtol

 Step     31 Time=  8.82991E-02 Dt=  7.30594E-03 [y] conv_reason: 3
  newton =   4 [     171] linear =     4 [       171] cuts =  0 [   0]
  --> SNES Linear/Non-Linear Iterations = 4 / 4
  --> SNES Residual: 0.516950E-16 0.516950E-16 0.219571E-16
  --> max change:  dcmx=   1.7593E-03  dc/dt=   7.6357E-09 [mol/s]
                  dvfmx=   2.3040E-05 dvf/dt=   1.0000E-10 [1/s]

== REACTIVE TRANSPORT ==========================================================
  0 2r: 6.32E-07 2x: 0.00E+00 2u: 0.00E+00 ir: 1.14E-07 iu: 0.00E+00 rsn:   0
  1 2r: 9.57E-08 2x: 6.94E+02 2u: 2.08E+01 ir: 3.16E-08 iu: 5.00E+00 rsn:   0
  2 2r: 1.01E-08 2x: 6.95E+02 2u: 4.37E+00 ir: 3.82E-09 iu: 9.59E-01 rsn:   0
  3 2r: 1.05E-09 2x: 6.95E+02 2u: 3.63E+00 ir: 3.96E-10 iu: 8.92E-01 rsn:   0
  4 2r: 1.21E-10 2x: 6.95E+02 2u: 2.66E+00 ir: 4.96E-11 iu: 7.37E-01 rsn:   0
  5 2r: 1.36E-11 2x: 6.96E+02 2u: 1.40E+00 ir: 8.09E-12 iu: 4.50E-01 rsn:   0
  6 2r: 7.08E-13 2x: 6.96E+02 2u: 3.49E-01 ir: 5.12E-13 iu: 1.37E-01 rsn:   0
  7 2r: 3.56E-15 2x: 6.96E+02 2u: 2.01E-02 ir: 3.18E-15 iu: 1.04E-02 rsn: rtol

 Step     32 Time=  1.02911E-01 Dt=  1.46119E-02 [y] conv_reason: 3
  newton =   7 [     178] linear =     7 [       178] cuts =  0 [   0]
  --> SNES Linear/Non-Linear Iterations = 7 / 7
  --> SNES Residual: 0.356318E-14 0.356318E-14 0.318476E-14
  --> max change:  dcmx=   3.1814E-03  dc/dt=   6.9042E-09 [mol/s]
                  dvfmx=   4.6080E-05 dvf/dt=   1.0000E-10 [1/s]

== REACTIVE TRANSPORT ==========================================================
  0 2r: 6.23E-07 2x: 0.00E+00 2u: 0.00E+00 ir: 1.03E-07 iu: 0.00E+00 rsn:   0
  1 2r: 3.05E-08 2x: 6.95E+02 2u: 3.57E+00 ir: 9.18E-09 iu: 7.79E-01 rsn:   0
  2 2r: 3.37E-10 2x: 6.95E+02 2u: 7.39E-01 ir: 1.35E-10 iu: 1.84E-01 rsn:   0
  3 2r: 3.05E-13 2x: 6.95E+02 2u: 6.46E-02 ir: 1.20E-13 iu: 1.91E-02 rsn:   0
  4 2r: 2.13E-18 2x: 6.95E+02 2u: 5.23E-04 ir: 8.27E-19 iu: 1.84E-04 rsn: rtol

 Step     33 Time=  1.10217E-01 Dt=  7.30594E-03 [y] conv_reason: 3
  newton =   4 [     182] linear =     4 [       182] cuts =  0 [   0]
  --> SNES Linear/Non-Linear Iterations = 4 / 4
  --> SNES Residual: 0.212868E-17 0.212868E-17 0.827201E-18
  --> max change:  dcmx=   1.5212E-03  dc/dt=   6.6026E-09 [mol/s]
                  dvfmx=   2.3040E-05 dvf/dt=   1.0000E-10 [1/s]

== REACTIVE TRANSPORT ==========================================================
  0 2r: 6.19E-07 2x: 0.00E+00 2u: 0.00E+00 ir: 9.88E-08 iu: 0.00E+00 rsn:   0
  1 2r: 6.93E-08 2x: 6.93E+02 2u: 1.64E+01 ir: 2.17E-08 iu: 4.49E+00 rsn:   0
  2 2r: 4.63E-09 2x: 6.94E+02 2u: 3.97E+00 ir: 1.73E-09 iu: 9.38E-01 rsn:   0
  3 2r: 2.00E-10 2x: 6.94E+02 2u: 2.95E+00 ir: 7.35E-11 iu: 8.42E-01 rsn:   0
  4 2r: 6.32E-12 2x: 6.94E+02 2u: 1.80E+00 ir: 2.35E-12 iu: 6.34E-01 rsn:   0
  5 2r: 1.80E-13 2x: 6.94E+02 2u: 7.16E-01 ir: 7.50E-14 iu: 3.10E-01 rsn:   0
  6 2r: 2.28E-15 2x: 6.94E+02 2u: 1.13E-01 ir: 1.27E-15 iu: 5.92E-02 rsn: rtol

 Step     34 Time=  1.24829E-01 Dt=  1.46119E-02 [y] conv_reason: 3
  newton =   6 [     188] linear =     6 [       188] cuts =  0 [   0]
  --> SNES Linear/Non-Linear Iterations = 6 / 6
  --> SNES Residual: 0.227559E-14 0.227559E-14 0.126595E-14
  --> max change:  dcmx=   2.7990E-03  dc/dt=   6.0742E-09 [mol/s]
                  dvfmx=   4.6080E-05 dvf/dt=   1.0000E-10 [1/s]

== REACTIVE TRANSPORT ==========================================================
  0 2r: 6.12E-07 2x: 0.00E+00 2u: 0.00E+00 ir: 9.09E-08 iu: 0.00E+00 rsn:   0
  1 2r: 2.47E-08 2x: 6.94E+02 2u: 3.20E+00 ir: 7.04E-09 iu: 6.84E-01 rsn:   0
  2 2r: 2.05E-10 2x: 6.94E+02 2u: 6.11E-01 ir: 7.80E-11 iu: 1.50E-01 rsn:   0
  3 2r: 1.06E-13 2x: 6.94E+02 2u: 4.24E-02 ir: 3.97E-14 iu: 1.25E-02 rsn:   0
  4 2r: 2.60E-19 2x: 6.94E+02 2u: 2.22E-04 ir: 9.50E-20 iu: 7.84E-05 rsn: rtol

 Step     35 Time=  1.32135E-01 Dt=  7.30594E-03 [y] conv_reason: 3
  newton =   4 [     192] linear =     4 [       192] cuts =  0 [   0]
  --> SNES Linear/Non-Linear Iterations = 4 / 4
  --> SNES Residual: 0.259793E-18 0.259793E-18 0.950195E-19
  --> max change:  dcmx=   1.3675E-03  dc/dt=   5.9353E-09 [mol/s]
                  dvfmx=   2.3040E-05 dvf/dt=   1.0000E-10 [1/s]

== REACTIVE TRANSPORT ==========================================================
  0 2r: 6.09E-07 2x: 0.00E+00 2u: 0.00E+00 ir: 8.88E-08 iu: 0.00E+00 rsn:   0
  1 2r: 5.50E-08 2x: 6.92E+02 2u: 1.29E+01 ir: 1.64E-08 iu: 3.35E+00 rsn:   0
  2 2r: 2.69E-09 2x: 6.93E+02 2u: 3.50E+00 ir: 9.70E-10 iu: 8.48E-01 rsn:   0
  3 2r: 6.27E-11 2x: 6.93E+02 2u: 2.15E+00 ir: 2.20E-11 iu: 6.45E-01 rsn:   0
  4 2r: 6.86E-13 2x: 6.93E+02 2u: 8.62E-01 ir: 2.40E-13 iu: 3.23E-01 rsn:   0
  5 2r: 3.93E-15 2x: 6.93E+02 2u: 1.41E-01 ir: 1.63E-15 iu: 6.49E-02 rsn: rtol

 Step     36 Time=  1.46747E-01 Dt=  1.46119E-02 [y] conv_reason: 3
  newton =   5 [     197] linear =     5 [       197] cuts =  0 [   0]
  --> SNES Linear/Non-Linear Iterations = 5 / 5
  --> SNES Residual: 0.393485E-14 0.393485E-14 0.163427E-14
  --> max change:  dcmx=   2.5564E-03  dc/dt=   5.5477E-09 [mol/s]
                  dvfmx=   4.6080E-05 dvf/dt=   1.0000E-10 [1/s]

== REACTIVE TRANSPORT ==========================================================
  0 2r: 6.03E-07 2x: 0.00E+00 2u: 0.00E+00 ir: 8.30E-08 iu: 0.00E+00 rsn:   0
  1 2r: 2.93E-07 2x: 6.88E+02 2u: 3.09E+01 ir: 1.42E-07 iu: 5.00E+00 rsn:   0
  2 2r: 9.36E-08 2x: 6.89E+02 2u: 4.99E+00 ir: 5.20E-08 iu: 9.58E-01 rsn:   0
  3 2r: 3.00E-08 2x: 6.89E+02 2u: 3.76E+00 ir: 1.85E-08 iu: 8.90E-01 rsn:   0
  4 2r: 8.62E-09 2x: 6.89E+02 2u: 2.43E+00 ir: 5.84E-09 iu: 7.32E-01 rsn:   0
  5 2r: 1.72E-09 2x: 6.89E+02 2u: 1.11E+00 ir: 1.25E-09 iu: 4.42E-01 rsn:   0
  6 2r: 1.23E-10 2x: 6.89E+02 2u: 2.46E-01 ir: 1.11E-10 iu: 1.32E-01 rsn:   0
  7 2r: 7.10E-13 2x: 6.89E+02 2u: 1.31E-02 ir: 6.52E-13 iu: 9.54E-03 rsn:   0
  8 2r: 1.82E-17 2x: 6.89E+02 2u: 5.01E-05 ir: 1.59E-17 iu: 4.58E-05 rsn: rtol

 Step     37 Time=  1.75970E-01 Dt=  2.92237E-02 [y] conv_reason: 3
  newton =   8 [     205] linear =     8 [       205] cuts =  0 [   0]
  --> SNES Linear/Non-Linear Iterations = 8 / 8
  --> SNES Residual: 0.182332E-16 0.182332E-16 0.159396E-16
  --> max change:  dcmx=   4.4362E-03  dc/dt=   4.8135E-09 [mol/s]
                  dvfmx=   9.2160E-05 dvf/dt=   1.0000E-10 [1/s]

== REACTIVE TRANSPORT ==========================================================
  0 2r: 5.91E-07 2x: 0.00E+00 2u: 0.00E+00 ir: 7.20E-08 iu: 0.00E+00 rsn:   0
  1 2r: 3.61E-08 2x: 6.89E+02 2u: 5.74E+00 ir: 9.42E-09 iu: 9.78E-01 rsn:   0
  2 2r: 7.78E-10 2x: 6.89E+02 2u: 1.38E+00 ir: 2.65E-10 iu: 2.56E-01 rsn:   0
  3 2r: 2.37E-12 2x: 6.89E+02 2u: 1.83E-01 ir: 8.12E-13 iu: 3.90E-02 rsn:   0
  4 2r: 1.34E-16 2x: 6.89E+02 2u: 3.19E-03 ir: 4.67E-17 iu: 7.82E-04 rsn: rtol

 Step     38 Time=  1.90582E-01 Dt=  1.46119E-02 [y] conv_reason: 3
  newton =   4 [     209] linear =     4 [       209] cuts =  0 [   0]
  --> SNES Linear/Non-Linear Iterations = 4 / 4
  --> SNES Residual: 0.134468E-15 0.134468E-15 0.466955E-16
  --> max change:  dcmx=   2.1136E-03  dc/dt=   4.5869E-09 [mol/s]
                  dvfmx=   4.6080E-05 dvf/dt=   1.0000E-10 [1/s]

== REACTIVE TRANSPORT ==========================================================
  0 2r: 5.86E-07 2x: 0.00E+00 2u: 0.00E+00 ir: 6.86E-08 iu: 0.00E+00 rsn:   0
  1 2r: 9.58E-08 2x: 6.85E+02 2u: 2.89E+01 ir: 2.48E-08 iu: 5.00E+00 rsn:   0
  2 2r: 1.44E-08 2x: 6.85E+02 2u: 5.91E+00 ir: 4.12E-09 iu: 9.59E-01 rsn:   0
  3 2r: 2.26E-09 2x: 6.86E+02 2u: 4.96E+00 ir: 6.66E-10 iu: 8.93E-01 rsn:   0
  4 2r: 3.72E-10 2x: 6.86E+02 2u: 3.63E+00 ir: 1.29E-10 iu: 7.38E-01 rsn:   0
  5 2r: 5.23E-11 2x: 6.87E+02 2u: 1.85E+00 ir: 2.85E-11 iu: 4.52E-01 rsn:   0
  6 2r: 3.15E-12 2x: 6.87E+02 2u: 4.30E-01 ir: 2.23E-12 iu: 1.39E-01 rsn:   0
  7 2r: 1.76E-14 2x: 6.87E+02 2u: 2.35E-02 ir: 1.42E-14 iu: 1.06E-02 rsn:   0
  8 2r: 5.91E-19 2x: 6.87E+02 2u: 9.08E-05 ir: 5.48E-19 iu: 5.64E-05 rsn: rtol

 Step     39 Time=  2.19806E-01 Dt=  2.92237E-02 [y] conv_reason: 3
  newton =   8 [     217] linear =     8 [       217] cuts =  0 [   0]
  --> SNES Linear/Non-Linear Iterations = 8 / 8
  --> SNES Residual: 0.590762E-18 0.590762E-18 0.548460E-18
  --> max change:  dcmx=   3.8048E-03  dc/dt=   4.1285E-09 [mol/s]
                  dvfmx=   9.2160E-05 dvf/dt=   1.0000E-10 [1/s]

== REACTIVE TRANSPORT ==========================================================
  0 2r: 5.75E-07 2x: 0.00E+00 2u: 0.00E+00 ir: 6.18E-08 iu: 0.00E+00 rsn:   0
  1 2r: 2.73E-08 2x: 6.86E+02 2u: 4.92E+00 ir: 6.53E-09 iu: 8.16E-01 rsn:   0
  2 2r: 3.86E-10 2x: 6.86E+02 2u: 1.06E+00 ir: 1.23E-10 iu: 1.97E-01 rsn:   0
  3 2r: 5.02E-13 2x: 6.86E+02 2u: 1.01E-01 ir: 1.59E-13 iu: 2.21E-02 rsn:   0
  4 2r: 5.67E-18 2x: 6.86E+02 2u: 9.63E-04 ir: 1.76E-18 iu: 2.48E-04 rsn: rtol

 Step     40 Time=  2.34418E-01 Dt=  1.46119E-02 [y] conv_reason: 3
  newton =   4 [     221] linear =     4 [       221] cuts =  0 [   0]
  --> SNES Linear/Non-Linear Iterations = 4 / 4
  --> SNES Residual: 0.567098E-17 0.567098E-17 0.176095E-17
  --> max change:  dcmx=   1.8484E-03  dc/dt=   4.0114E-09 [mol/s]
                  dvfmx=   4.6080E-05 dvf/dt=   1.0000E-10 [1/s]

== REACTIVE TRANSPORT ==========================================================
  0 2r: 5.70E-07 2x: 0.00E+00 2u: 0.00E+00 ir: 6.00E-08 iu: 0.00E+00 rsn:   0
  1 2r: 2.76E-08 2x: 6.85E+02 2u: 5.41E+00 ir: 6.59E-09 iu: 9.10E-01 rsn:   0
  2 2r: 4.36E-10 2x: 6.85E+02 2u: 1.23E+00 ir: 1.36E-10 iu: 2.31E-01 rsn:   0
  3 2r: 7.30E-13 2x: 6.85E+02 2u: 1.41E-01 ir: 2.26E-13 iu: 3.12E-02 rsn:   0
  4 2r: 1.52E-17 2x: 6.85E+02 2u: 1.89E-03 ir: 4.66E-18 iu: 4.98E-04 rsn: rtol

 Step     41 Time=  2.50000E-01 Dt=  1.55822E-02 [y] conv_reason: 3
  newton =   4 [     225] linear =     4 [       225] cuts =  0 [   0]
  --> SNES Linear/Non-Linear Iterations = 4 / 4
  --> SNES Residual: 0.152322E-16 0.152322E-16 0.465839E-17
  --> max change:  dcmx=   1.9712E-03  dc/dt=   4.0114E-09 [mol/s]
                  dvfmx=   4.9140E-05 dvf/dt=   1.0000E-10 [1/s]

 --> appending to hdf5 output file: /mnt/d/permafrost_transport_demo/data/pflotran_dir/nitrate-subsurface.h5
      0.02 Seconds to write HDF5 file.

== REACTIVE TRANSPORT ==========================================================
  0 2r: 5.66E-07 2x: 0.00E+00 2u: 0.00E+00 ir: 6.00E-08 iu: 0.00E+00 rsn:   0
  1 2r: 6.12E-08 2x: 6.82E+02 2u: 2.47E+01 ir: 1.51E-08 iu: 5.00E+00 rsn:   0
  2 2r: 5.26E-09 2x: 6.82E+02 2u: 5.55E+00 ir: 1.51E-09 iu: 9.59E-01 rsn:   0
  3 2r: 3.24E-10 2x: 6.83E+02 2u: 4.40E+00 ir: 9.28E-11 iu: 8.94E-01 rsn:   0
  4 2r: 1.62E-11 2x: 6.83E+02 2u: 3.08E+00 ir: 4.74E-12 iu: 7.41E-01 rsn:   0
  5 2r: 7.90E-13 2x: 6.83E+02 2u: 1.62E+00 ir: 2.50E-13 iu: 4.57E-01 rsn:   0
  6 2r: 2.60E-14 2x: 6.84E+02 2u: 4.40E-01 ir: 1.10E-14 iu: 1.42E-01 rsn:   0
  7 2r: 1.27E-16 2x: 6.84E+02 2u: 3.06E-02 ir: 9.72E-17 iu: 1.12E-02 rsn: rtol

 Step     42 Time=  2.79224E-01 Dt=  2.92237E-02 [y] conv_reason: 3
  newton =   7 [     232] linear =     7 [       232] cuts =  0 [   0]
  --> SNES Linear/Non-Linear Iterations = 7 / 7
  --> SNES Residual: 0.126583E-15 0.126583E-15 0.972171E-16
  --> max change:  dcmx=   3.6969E-03  dc/dt=   4.0114E-09 [mol/s]
                  dvfmx=   9.2160E-05 dvf/dt=   1.0000E-10 [1/s]

== REACTIVE TRANSPORT ==========================================================
  0 2r: 5.56E-07 2x: 0.00E+00 2u: 0.00E+00 ir: 6.00E-08 iu: 0.00E+00 rsn:   0
  1 2r: 2.08E-08 2x: 6.83E+02 2u: 4.40E+00 ir: 4.67E-09 iu: 7.19E-01 rsn:   0
  2 2r: 2.12E-10 2x: 6.83E+02 2u: 8.77E-01 ir: 6.32E-11 iu: 1.62E-01 rsn:   0
  3 2r: 1.47E-13 2x: 6.83E+02 2u: 6.66E-02 ir: 4.30E-14 iu: 1.47E-02 rsn:   0
  4 2r: 5.50E-19 2x: 6.83E+02 2u: 4.13E-04 ir: 1.57E-19 iu: 1.09E-04 rsn: rtol

 Step     43 Time=  2.93836E-01 Dt=  1.46119E-02 [y] conv_reason: 3
  newton =   4 [     236] linear =     4 [       236] cuts =  0 [   0]
  --> SNES Linear/Non-Linear Iterations = 4 / 4
  --> SNES Residual: 0.549936E-18 0.549936E-18 0.157359E-18
  --> max change:  dcmx=   1.8484E-03  dc/dt=   4.0114E-09 [mol/s]
                  dvfmx=   4.6080E-05 dvf/dt=   1.0000E-10 [1/s]

== REACTIVE TRANSPORT ==========================================================
  0 2r: 5.52E-07 2x: 0.00E+00 2u: 0.00E+00 ir: 6.00E-08 iu: 0.00E+00 rsn:   0
  1 2r: 4.86E-08 2x: 6.80E+02 2u: 1.96E+01 ir: 1.14E-08 iu: 3.92E+00 rsn:   0
  2 2r: 3.09E-09 2x: 6.80E+02 2u: 5.03E+00 ir: 8.64E-10 iu: 9.03E-01 rsn:   0
  3 2r: 1.07E-10 2x: 6.81E+02 2u: 3.46E+00 ir: 2.93E-11 iu: 7.60E-01 rsn:   0
  4 2r: 2.05E-12 2x: 6.81E+02 2u: 1.79E+00 ir: 5.65E-13 iu: 4.86E-01 rsn:   0
  5 2r: 2.69E-14 2x: 6.81E+02 2u: 4.91E-01 ir: 8.33E-15 iu: 1.65E-01 rsn:   0
  6 2r: 8.89E-17 2x: 6.81E+02 2u: 3.74E-02 ir: 3.81E-17 iu: 1.51E-02 rsn: rtol

 Step     44 Time=  3.23059E-01 Dt=  2.92237E-02 [y] conv_reason: 3
  newton =   6 [     242] linear =     6 [       242] cuts =  0 [   0]
  --> SNES Linear/Non-Linear Iterations = 6 / 6
  --> SNES Residual: 0.888540E-16 0.888540E-16 0.381035E-16
  --> max change:  dcmx=   3.6969E-03  dc/dt=   4.0114E-09 [mol/s]
                  dvfmx=   9.2160E-05 dvf/dt=   1.0000E-10 [1/s]

== REACTIVE TRANSPORT ==========================================================
  0 2r: 5.43E-07 2x: 0.00E+00 2u: 0.00E+00 ir: 6.00E-08 iu: 0.00E+00 rsn:   0
  1 2r: 1.76E-08 2x: 6.80E+02 2u: 4.10E+00 ir: 3.81E-09 iu: 6.57E-01 rsn:   0
  2 2r: 1.47E-10 2x: 6.81E+02 2u: 7.70E-01 ir: 4.20E-11 iu: 1.41E-01 rsn:   0
  3 2r: 6.83E-14 2x: 6.81E+02 2u: 4.97E-02 ir: 1.91E-14 iu: 1.09E-02 rsn:   0
  4 2r: 1.24E-19 2x: 6.81E+02 2u: 2.28E-04 ir: 3.39E-20 iu: 6.04E-05 rsn: rtol

 Step     45 Time=  3.37671E-01 Dt=  1.46119E-02 [y] conv_reason: 3
  newton =   4 [     246] linear =     4 [       246] cuts =  0 [   0]
  --> SNES Linear/Non-Linear Iterations = 4 / 4
  --> SNES Residual: 0.124381E-18 0.124381E-18 0.339072E-19
  --> max change:  dcmx=   1.8484E-03  dc/dt=   4.0114E-09 [mol/s]
                  dvfmx=   4.6080E-05 dvf/dt=   1.0000E-10 [1/s]

== REACTIVE TRANSPORT ==========================================================
  0 2r: 5.39E-07 2x: 0.00E+00 2u: 0.00E+00 ir: 6.00E-08 iu: 0.00E+00 rsn:   0
  1 2r: 4.05E-08 2x: 6.78E+02 2u: 1.66E+01 ir: 9.18E-09 iu: 3.20E+00 rsn:   0
  2 2r: 2.05E-09 2x: 6.78E+02 2u: 4.56E+00 ir: 5.55E-10 iu: 8.29E-01 rsn:   0
  3 2r: 4.50E-11 2x: 6.79E+02 2u: 2.69E+00 ir: 1.19E-11 iu: 6.08E-01 rsn:   0
  4 2r: 3.90E-13 2x: 6.79E+02 2u: 9.91E-01 ir: 1.02E-13 iu: 2.79E-01 rsn:   0
  5 2r: 1.47E-15 2x: 6.79E+02 2u: 1.36E-01 ir: 4.57E-16 iu: 4.72E-02 rsn: rtol

 Step     46 Time=  3.66895E-01 Dt=  2.92237E-02 [y] conv_reason: 3
  newton =   5 [     251] linear =     5 [       251] cuts =  0 [   0]
  --> SNES Linear/Non-Linear Iterations = 5 / 5
  --> SNES Residual: 0.146818E-14 0.146818E-14 0.457145E-15
  --> max change:  dcmx=   3.6969E-03  dc/dt=   4.0114E-09 [mol/s]
                  dvfmx=   9.2160E-05 dvf/dt=   1.0000E-10 [1/s]

== REACTIVE TRANSPORT ==========================================================
  0 2r: 5.30E-07 2x: 0.00E+00 2u: 0.00E+00 ir: 6.00E-08 iu: 0.00E+00 rsn:   0
  1 2r: 2.69E-07 2x: 6.73E+02 2u: 3.73E+01 ir: 1.37E-07 iu: 5.00E+00 rsn:   0
  2 2r: 8.92E-08 2x: 6.74E+02 2u: 5.60E+00 ir: 5.01E-08 iu: 9.57E-01 rsn:   0
  3 2r: 2.93E-08 2x: 6.74E+02 2u: 4.18E+00 ir: 1.81E-08 iu: 8.89E-01 rsn:   0
  4 2r: 8.70E-09 2x: 6.74E+02 2u: 2.71E+00 ir: 6.16E-09 iu: 7.29E-01 rsn:   0
  5 2r: 1.84E-09 2x: 6.74E+02 2u: 1.25E+00 ir: 1.55E-09 iu: 4.39E-01 rsn:   0
  6 2r: 1.37E-10 2x: 6.74E+02 2u: 2.83E-01 ir: 1.28E-10 iu: 1.30E-01 rsn:   0
  7 2r: 7.10E-13 2x: 6.74E+02 2u: 1.60E-02 ir: 6.39E-13 iu: 9.18E-03 rsn:   0
  8 2r: 1.52E-17 2x: 6.74E+02 2u: 6.15E-05 ir: 1.13E-17 iu: 4.24E-05 rsn: rtol

 Step     47 Time=  4.25342E-01 Dt=  5.84475E-02 [y] conv_reason: 3
  newton =   8 [     259] linear =     8 [       259] cuts =  0 [   0]
  --> SNES Linear/Non-Linear Iterations = 8 / 8
  --> SNES Residual: 0.152286E-16 0.152286E-16 0.112757E-16
  --> max change:  dcmx=   7.3938E-03  dc/dt=   4.0114E-09 [mol/s]
                  dvfmx=   1.8432E-04 dvf/dt=   1.0000E-10 [1/s]

== REACTIVE TRANSPORT ==========================================================
  0 2r: 5.11E-07 2x: 0.00E+00 2u: 0.00E+00 ir: 6.00E-08 iu: 0.00E+00 rsn:   0
  1 2r: 2.73E-08 2x: 6.73E+02 2u: 6.80E+00 ir: 5.53E-09 iu: 9.84E-01 rsn:   0
  2 2r: 6.62E-10 2x: 6.73E+02 2u: 1.64E+00 ir: 1.70E-10 iu: 2.58E-01 rsn:   0
  3 2r: 2.25E-12 2x: 6.73E+02 2u: 2.22E-01 ir: 5.81E-13 iu: 3.98E-02 rsn:   0
  4 2r: 1.45E-16 2x: 6.73E+02 2u: 4.02E-03 ir: 3.83E-17 iu: 8.11E-04 rsn: rtol

 Step     48 Time=  4.54566E-01 Dt=  2.92237E-02 [y] conv_reason: 3
  newton =   4 [     263] linear =     4 [       263] cuts =  0 [   0]
  --> SNES Linear/Non-Linear Iterations = 4 / 4
  --> SNES Residual: 0.145255E-15 0.145255E-15 0.382723E-16
  --> max change:  dcmx=   3.6969E-03  dc/dt=   4.0114E-09 [mol/s]
                  dvfmx=   9.2160E-05 dvf/dt=   1.0000E-10 [1/s]

== REACTIVE TRANSPORT ==========================================================
  0 2r: 5.03E-07 2x: 0.00E+00 2u: 0.00E+00 ir: 6.00E-08 iu: 0.00E+00 rsn:   0
  1 2r: 4.73E-08 2x: 6.71E+02 2u: 1.66E+01 ir: 9.74E-09 iu: 3.05E+00 rsn:   0
  2 2r: 3.69E-09 2x: 6.72E+02 2u: 4.59E+00 ir: 8.88E-10 iu: 8.08E-01 rsn:   0
  3 2r: 1.52E-10 2x: 6.72E+02 2u: 2.61E+00 ir: 3.70E-11 iu: 5.68E-01 rsn:   0
  4 2r: 2.30E-12 2x: 6.72E+02 2u: 8.65E-01 ir: 5.73E-13 iu: 2.38E-01 rsn:   0
  5 2r: 6.62E-15 2x: 6.72E+02 2u: 9.50E-02 ir: 1.71E-15 iu: 3.33E-02 rsn:   0
  6 2r: 6.51E-19 2x: 6.72E+02 2u: 1.27E-03 ir: 1.94E-19 iu: 5.66E-04 rsn: rtol

 Step     49 Time=  5.00000E-01 Dt=  4.54338E-02 [y] conv_reason: 3
  newton =   6 [     269] linear =     6 [       269] cuts =  0 [   0]
  --> SNES Linear/Non-Linear Iterations = 6 / 6
  --> SNES Residual: 0.650675E-18 0.650675E-18 0.194143E-18
  --> max change:  dcmx=   5.7475E-03  dc/dt=   4.0114E-09 [mol/s]
                  dvfmx=   1.4328E-04 dvf/dt=   1.0000E-10 [1/s]

 --> appending to hdf5 output file: /mnt/d/permafrost_transport_demo/data/pflotran_dir/nitrate-subsurface.h5
      0.01 Seconds to write HDF5 file.

== REACTIVE TRANSPORT ==========================================================
  0 2r: 4.89E-07 2x: 0.00E+00 2u: 0.00E+00 ir: 6.00E-08 iu: 0.00E+00 rsn:   0
  1 2r: 6.43E-08 2x: 6.69E+02 2u: 2.54E+01 ir: 1.25E-08 iu: 5.00E+00 rsn:   0
  2 2r: 9.06E-09 2x: 6.70E+02 2u: 5.62E+00 ir: 1.93E-09 iu: 9.59E-01 rsn:   0
  3 2r: 1.23E-09 2x: 6.70E+02 2u: 4.45E+00 ir: 2.65E-10 iu: 8.94E-01 rsn:   0
  4 2r: 1.76E-10 2x: 6.70E+02 2u: 3.15E+00 ir: 4.27E-11 iu: 7.40E-01 rsn:   0
  5 2r: 2.31E-11 2x: 6.70E+02 2u: 1.66E+00 ir: 8.63E-12 iu: 4.56E-01 rsn:   0
  6 2r: 1.41E-12 2x: 6.71E+02 2u: 4.36E-01 ir: 8.03E-13 iu: 1.42E-01 rsn:   0
  7 2r: 8.69E-15 2x: 6.71E+02 2u: 2.77E-02 ir: 6.35E-15 iu: 1.10E-02 rsn:   0
  8 2r: 3.31E-19 2x: 6.71E+02 2u: 1.18E-04 ir: 2.97E-19 iu: 6.11E-05 rsn: rtol

 Step     50 Time=  5.58447E-01 Dt=  5.84475E-02 [y] conv_reason: 3
  newton =   8 [     277] linear =     8 [       277] cuts =  0 [   0]
  --> SNES Linear/Non-Linear Iterations = 8 / 8
  --> SNES Residual: 0.331351E-18 0.331351E-18 0.296746E-18
  --> max change:  dcmx=   7.3936E-03  dc/dt=   4.0113E-09 [mol/s]
                  dvfmx=   1.8432E-04 dvf/dt=   1.0000E-10 [1/s]

== REACTIVE TRANSPORT ==========================================================
  0 2r: 4.70E-07 2x: 0.00E+00 2u: 0.00E+00 ir: 6.00E-08 iu: 0.00E+00 rsn:   0
  1 2r: 1.86E-08 2x: 6.70E+02 2u: 4.39E+00 ir: 3.41E-09 iu: 7.43E-01 rsn:   0
  2 2r: 2.71E-10 2x: 6.70E+02 2u: 8.55E-01 ir: 6.29E-11 iu: 1.71E-01 rsn:   0
  3 2r: 3.27E-13 2x: 6.70E+02 2u: 6.48E-02 ir: 7.51E-14 iu: 1.64E-02 rsn:   0
  4 2r: 3.17E-18 2x: 6.70E+02 2u: 4.21E-04 ir: 7.18E-19 iu: 1.36E-04 rsn: rtol

 Step     51 Time=  5.87671E-01 Dt=  2.92237E-02 [y] conv_reason: 3
  newton =   4 [     281] linear =     4 [       281] cuts =  0 [   0]
  --> SNES Linear/Non-Linear Iterations = 4 / 4
  --> SNES Residual: 0.316924E-17 0.316924E-17 0.718448E-18
  --> max change:  dcmx=   3.6967E-03  dc/dt=   4.0112E-09 [mol/s]
                  dvfmx=   9.2160E-05 dvf/dt=   1.0000E-10 [1/s]

== REACTIVE TRANSPORT ==========================================================
  0 2r: 4.61E-07 2x: 0.00E+00 2u: 0.00E+00 ir: 6.00E-08 iu: 0.00E+00 rsn:   0
  1 2r: 4.69E-08 2x: 6.68E+02 2u: 1.47E+01 ir: 8.88E-09 iu: 3.37E+00 rsn:   0
  2 2r: 4.51E-09 2x: 6.69E+02 2u: 4.00E+00 ir: 9.61E-10 iu: 8.49E-01 rsn:   0
  3 2r: 3.02E-10 2x: 6.69E+02 2u: 2.28E+00 ir: 6.45E-11 iu: 6.47E-01 rsn:   0
  4 2r: 1.48E-11 2x: 6.69E+02 2u: 8.47E-01 ir: 3.58E-12 iu: 3.26E-01 rsn:   0
  5 2r: 3.18E-13 2x: 6.69E+02 2u: 1.28E-01 ir: 1.53E-13 iu: 6.64E-02 rsn:   0
  6 2r: 3.79E-16 2x: 6.69E+02 2u: 3.44E-03 ir: 2.89E-16 iu: 2.31E-03 rsn: rtol

 Step     52 Time=  6.46119E-01 Dt=  5.84475E-02 [y] conv_reason: 3
  newton =   6 [     287] linear =     6 [       287] cuts =  0 [   0]
  --> SNES Linear/Non-Linear Iterations = 6 / 6
  --> SNES Residual: 0.379076E-15 0.379076E-15 0.289435E-15
  --> max change:  dcmx=   7.3922E-03  dc/dt=   4.0105E-09 [mol/s]
                  dvfmx=   1.8432E-04 dvf/dt=   1.0000E-10 [1/s]

== REACTIVE TRANSPORT ==========================================================
  0 2r: 4.43E-07 2x: 0.00E+00 2u: 0.00E+00 ir: 6.00E-08 iu: 0.00E+00 rsn:   0
  1 2r: 1.53E-08 2x: 6.69E+02 2u: 3.42E+00 ir: 2.70E-09 iu: 6.06E-01 rsn:   0
  2 2r: 1.79E-10 2x: 6.69E+02 2u: 5.68E-01 ir: 3.95E-11 iu: 1.24E-01 rsn:   0
  3 2r: 1.36E-13 2x: 6.69E+02 2u: 2.95E-02 ir: 2.96E-14 iu: 8.33E-03 rsn:   0
  4 2r: 5.33E-19 2x: 6.69E+02 2u: 9.53E-05 ir: 1.20E-19 iu: 3.49E-05 rsn: rtol

 Step     53 Time=  6.75342E-01 Dt=  2.92237E-02 [y] conv_reason: 3
  newton =   4 [     291] linear =     4 [       291] cuts =  0 [   0]
  --> SNES Linear/Non-Linear Iterations = 4 / 4
  --> SNES Residual: 0.533308E-18 0.533308E-18 0.119945E-18
  --> max change:  dcmx=   3.6956E-03  dc/dt=   4.0100E-09 [mol/s]
                  dvfmx=   9.2160E-05 dvf/dt=   1.0000E-10 [1/s]

== REACTIVE TRANSPORT ==========================================================
  0 2r: 4.34E-07 2x: 0.00E+00 2u: 0.00E+00 ir: 6.00E-08 iu: 0.00E+00 rsn:   0
  1 2r: 3.73E-08 2x: 6.68E+02 2u: 9.63E+00 ir: 6.86E-09 iu: 2.17E+00 rsn:   0
  2 2r: 2.77E-09 2x: 6.68E+02 2u: 2.67E+00 ir: 5.75E-10 iu: 6.37E-01 rsn:   0
  3 2r: 1.08E-10 2x: 6.68E+02 2u: 9.57E-01 ir: 2.28E-11 iu: 3.13E-01 rsn:   0
  4 2r: 1.51E-12 2x: 6.68E+02 2u: 1.37E-01 ir: 5.24E-13 iu: 6.07E-02 rsn:   0
  5 2r: 1.27E-15 2x: 6.68E+02 2u: 3.29E-03 ir: 8.08E-16 iu: 1.92E-03 rsn: rtol

 Step     54 Time=  7.33790E-01 Dt=  5.84475E-02 [y] conv_reason: 3
  newton =   5 [     296] linear =     5 [       296] cuts =  0 [   0]
  --> SNES Linear/Non-Linear Iterations = 5 / 5
  --> SNES Residual: 0.126755E-14 0.126755E-14 0.807922E-15
  --> max change:  dcmx=   7.3856E-03  dc/dt=   4.0070E-09 [mol/s]
                  dvfmx=   1.8432E-04 dvf/dt=   1.0000E-10 [1/s]

== REACTIVE TRANSPORT ==========================================================
  0 2r: 4.14E-07 2x: 0.00E+00 2u: 0.00E+00 ir: 5.99E-08 iu: 0.00E+00 rsn:   0
  1 2r: 6.63E-09 2x: 6.68E+02 2u: 1.35E+00 ir: 1.12E-09 iu: 2.31E-01 rsn:   0
  2 2r: 1.66E-11 2x: 6.68E+02 2u: 1.03E-01 ir: 3.55E-12 iu: 2.29E-02 rsn:   0
  3 2r: 5.24E-16 2x: 6.68E+02 2u: 9.16E-04 ir: 1.12E-16 iu: 2.66E-04 rsn: rtol

 Step     55 Time=  7.50000E-01 Dt=  1.62100E-02 [y] conv_reason: 3
  newton =   3 [     299] linear =     3 [       299] cuts =  0 [   0]
  --> SNES Linear/Non-Linear Iterations = 3 / 3
  --> SNES Residual: 0.523530E-15 0.523530E-15 0.111561E-15
  --> max change:  dcmx=   2.0478E-03  dc/dt=   4.0059E-09 [mol/s]
                  dvfmx=   5.1120E-05 dvf/dt=   1.0000E-10 [1/s]

 --> appending to hdf5 output file: /mnt/d/permafrost_transport_demo/data/pflotran_dir/nitrate-subsurface.h5
      0.01 Seconds to write HDF5 file.

== REACTIVE TRANSPORT ==========================================================
  0 2r: 4.09E-07 2x: 0.00E+00 2u: 0.00E+00 ir: 5.99E-08 iu: 0.00E+00 rsn:   0
  1 2r: 3.87E-07 2x: 6.66E+02 2u: 2.31E+01 ir: 1.86E-07 iu: 5.00E+00 rsn:   0
  2 2r: 1.36E-07 2x: 6.66E+02 2u: 5.11E+00 ir: 6.81E-08 iu: 9.59E-01 rsn:   0
  3 2r: 4.64E-08 2x: 6.67E+02 2u: 3.84E+00 ir: 2.47E-08 iu: 8.94E-01 rsn:   0
  4 2r: 1.44E-08 2x: 6.67E+02 2u: 2.71E+00 ir: 8.56E-09 iu: 7.41E-01 rsn:   0
  5 2r: 3.26E-09 2x: 6.67E+02 2u: 1.40E+00 ir: 2.33E-09 iu: 4.57E-01 rsn:   0
  6 2r: 2.83E-10 2x: 6.67E+02 2u: 3.46E-01 ir: 2.44E-10 iu: 1.42E-01 rsn:   0
  7 2r: 2.10E-12 2x: 6.67E+02 2u: 2.06E-02 ir: 1.95E-12 iu: 1.11E-02 rsn:   0
  8 2r: 8.16E-17 2x: 6.67E+02 2u: 8.81E-05 ir: 7.40E-17 iu: 6.23E-05 rsn: rtol

 Step     56 Time=  8.66895E-01 Dt=  1.16895E-01 [y] conv_reason: 3
  newton =   8 [     307] linear =     8 [       307] cuts =  0 [   0]
  --> SNES Linear/Non-Linear Iterations = 8 / 8
  --> SNES Residual: 0.816273E-16 0.816273E-16 0.739522E-16
  --> max change:  dcmx=   1.4596E-02  dc/dt=   3.9595E-09 [mol/s]
                  dvfmx=   3.6864E-04 dvf/dt=   1.0000E-10 [1/s]

== REACTIVE TRANSPORT ==========================================================
  0 2r: 3.64E-07 2x: 0.00E+00 2u: 0.00E+00 ir: 5.92E-08 iu: 0.00E+00 rsn:   0
  1 2r: 2.17E-08 2x: 6.66E+02 2u: 4.00E+00 ir: 3.68E-09 iu: 7.33E-01 rsn:   0
  2 2r: 6.87E-10 2x: 6.66E+02 2u: 7.12E-01 ir: 1.37E-10 iu: 1.67E-01 rsn:   0
  3 2r: 2.68E-12 2x: 6.66E+02 2u: 4.79E-02 ir: 6.22E-13 iu: 1.56E-02 rsn:   0
  4 2r: 1.16E-16 2x: 6.66E+02 2u: 2.88E-04 ir: 4.69E-17 iu: 1.24E-04 rsn: rtol

 Step     57 Time=  9.25342E-01 Dt=  5.84475E-02 [y] conv_reason: 3
  newton =   4 [     311] linear =     4 [       311] cuts =  0 [   0]
  --> SNES Linear/Non-Linear Iterations = 4 / 4
  --> SNES Residual: 0.115532E-15 0.115532E-15 0.468919E-16
  --> max change:  dcmx=   7.2284E-03  dc/dt=   3.9217E-09 [mol/s]
                  dvfmx=   1.8432E-04 dvf/dt=   1.0000E-10 [1/s]

== REACTIVE TRANSPORT ==========================================================
  0 2r: 3.43E-07 2x: 0.00E+00 2u: 0.00E+00 ir: 5.87E-08 iu: 0.00E+00 rsn:   0
  1 2r: 2.80E-08 2x: 6.66E+02 2u: 4.80E+00 ir: 4.80E-09 iu: 9.43E-01 rsn:   0
  2 2r: 1.55E-09 2x: 6.66E+02 2u: 9.77E-01 ir: 3.15E-10 iu: 2.43E-01 rsn:   0
  3 2r: 1.71E-11 2x: 6.66E+02 2u: 9.62E-02 ir: 5.26E-12 iu: 3.49E-02 rsn:   0
  4 2r: 4.66E-15 2x: 6.66E+02 2u: 1.28E-03 ir: 2.46E-15 iu: 6.24E-04 rsn:   0
  5 2r: 9.35E-21 2x: 6.66E+02 2u: 3.09E-07 ir: 2.92E-21 iu: 1.95E-07 rsn: rtol

 Step     58 Time=  1.00000E+00 Dt=  7.46575E-02 [y] conv_reason: 3
  newton =   5 [     316] linear =     5 [       316] cuts =  0 [   0]
  --> SNES Linear/Non-Linear Iterations = 5 / 5
  --> SNES Residual: 0.934776E-20 0.934776E-20 0.292491E-20
  --> max change:  dcmx=   9.0351E-03  dc/dt=   3.8375E-09 [mol/s]
                  dvfmx=   2.3544E-04 dvf/dt=   1.0000E-10 [1/s]

 --> appending to hdf5 output file: /mnt/d/permafrost_transport_demo/data/pflotran_dir/nitrate-subsurface.h5
      0.01 Seconds to write HDF5 file.

PMCSubsurfaceTransport
 Total Time: 1.3271E-01 seconds

 TRAN TS SNES steps = 58  newton = 316  linear = 316  cuts = 0
 TRAN TS SNES Wasted Linear Iterations = 0
 TRAN TS SNES Wasted Newton Iterations = 0
 TRAN TS SNES time = 0.1 seconds

 Wall Clock Time:  2.1269E-01 [sec]   3.5449E-03 [min]   5.9082E-05 [hr]
